
 OpenBabel08191917103D

 35 37  0  0  0  0  0  0  0  0999 V2000
   28.7253   13.1575   -1.5253 C   0  0  0  0  0  0  0  0  0  0  0  0
   27.7883   12.6917   -0.6156 C   0  0  0  0  0  0  0  0  0  0  0  0
   26.5931   12.2158   -1.1757 C   0  0  0  0  0  0  0  0  0  0  0  0
   26.4443   12.2398   -2.5162 N   0  0  0  0  0  0  0  0  0  0  0  0
   28.6099   13.1942   -2.8589 N   0  0  0  0  0  0  0  0  0  0  0  0
   27.7809   12.3966    2.0020 C   0  0  0  0  0  0  0  0  0  0  0  0
   28.3746   12.8189    0.6929 C   0  0  0  0  0  0  0  0  0  0  0  0
   25.5211   11.7152   -0.4462 N   0  0  0  0  0  0  0  0  0  0  0  0
   27.4333   12.7230   -3.2809 C   0  0  0  0  0  0  0  0  0  0  0  0
   27.2315   12.6731   -4.6489 N   0  0  0  0  0  0  0  0  0  0  0  0
   29.8282   13.5712   -0.8360 N   0  0  0  0  0  0  0  0  0  0  0  0
   29.6314   13.3726    0.5012 C   0  0  0  0  0  0  0  0  0  0  0  0
   30.9158   13.7062    1.6205 S   0  0  0  0  0  0  0  0  0  0  0  0
   31.3273   15.3942    1.2165 C   0  0  0  0  0  0  0  0  0  0  0  0
   30.3543   16.3940    1.1004 C   0  0  0  0  0  0  0  0  0  0  0  0
   30.7259   17.7168    0.8400 C   0  0  0  0  0  0  0  0  0  0  0  0
   32.0738   18.0445    0.7080 C   0  0  0  0  0  0  0  0  0  0  0  0
   33.0533   17.0619    0.8295 C   0  0  0  0  0  0  0  0  0  0  0  0
   32.6787   15.7397    1.0852 C   0  0  0  0  0  0  0  0  0  0  0  0
   24.6987   11.6807   -1.0397 H   0  0  0  0  0  0  0  0  0  0  0  0
   25.3845   12.1632    0.4472 H   0  0  0  0  0  0  0  0  0  0  0  0
   28.1267   12.6080   -5.1127 H   0  0  0  0  0  0  0  0  0  0  0  0
   26.5599   11.9442   -4.8490 H   0  0  0  0  0  0  0  0  0  0  0  0
   30.6631   13.9395   -1.2650 H   0  0  0  0  0  0  0  0  0  0  0  0
   29.2998   16.1580    1.2245 H   0  0  0  0  0  0  0  0  0  0  0  0
   29.9585   18.4819    0.7547 H   0  0  0  0  0  0  0  0  0  0  0  0
   34.1071   17.3131    0.7391 H   0  0  0  0  0  0  0  0  0  0  0  0
   33.4547   14.9846    1.1953 H   0  0  0  0  0  0  0  0  0  0  0  0
   26.8366   13.4353    2.5893 C   0  0  0  0  0  0  0  0  0  0  0  0
   27.2527   14.4460    2.5270 H   0  0  0  0  0  0  0  0  0  0  0  0
   26.6380   13.2105    3.6423 H   0  0  0  0  0  0  0  0  0  0  0  0
   25.8752   13.4392    2.0676 H   0  0  0  0  0  0  0  0  0  0  0  0
   28.5828   12.2082    2.7257 H   0  0  0  0  0  0  0  0  0  0  0  0
   27.2575   11.4407    1.8860 H   0  0  0  0  0  0  0  0  0  0  0  0
   32.5782   19.8358    0.3790 Br  0  0  0  0  0  0  0  0  0  0  0  0
  1 11  1  0  0  0  0
  1  2  2  0  0  0  0
  2  7  1  0  0  0  0
  3  2  1  0  0  0  0
  3  8  1  0  0  0  0
  4  3  2  0  0  0  0
  5  1  1  0  0  0  0
  6 33  1  0  0  0  0
  6 34  1  0  0  0  0
  7  6  1  0  0  0  0
  8 20  1  0  0  0  0
  8 21  1  0  0  0  0
  9  5  2  0  0  0  0
  9  4  1  0  0  0  0
 10  9  1  0  0  0  0
 10 22  1  0  0  0  0
 10 23  1  0  0  0  0
 11 12  1  0  0  0  0
 11 24  1  0  0  0  0
 12  7  2  0  0  0  0
 12 13  1  0  0  0  0
 14 13  1  0  0  0  0
 14 19  2  0  0  0  0
 15 14  1  0  0  0  0
 15 25  1  0  0  0  0
 16 15  2  0  0  0  0
 16 17  1  0  0  0  0
 16 26  1  0  0  0  0
 17 18  2  0  0  0  0
 17 35  1  0  0  0  0
 18 19  1  0  0  0  0
 18 27  1  0  0  0  0
 19 28  1  0  0  0  0
 29  6  1  0  0  0  0
 29 30  1  0  0  0  0
 29 31  1  0  0  0  0
 29 32  1  0  0  0  0
M  END
>  <MOL Chiral Flag>
0

>  <InstanceId>
5HPB_63W_A_202

>  <ChemCompId>
63W

>  <PdbId>
5HPB

>  <ChainId>
A

>  <ResidueNumber>
202

>  <InsertionCode>


>  <Model>
1

>  <AltIds>


>  <MissingHeavyAtoms>
0

>  <ObservedFormula>
C14 N4 S2 F3

>  <Name>
5-methyl-6-{[4-(trifluoromethyl)phenyl]sulfanyl}thieno[2,3-d]pyrimidine-2,4-diamine

>  <SystematicName>
5-methyl-6-[4-(trifluoromethyl)phenyl]sulfanyl-thieno[2,3-d]pyrimidine-2,4-diamine

>  <Synonyms>


>  <Type>
NON-POLYMER

>  <Formula>
C14 H11 F3 N4 S2

>  <MolecularWeight>
356.389

>  <ModifiedDate>
2017-01-20

>  <Parent>


>  <OneLetterCode>


>  <SubcomponentList>


>  <AmbiguousFlag>
N

>  <InChI>
InChI=1S/C14H11F3N4S2/c1-6-9-10(18)20-13(19)21-11(9)23-12(6)22-8-4-2-7(3-5-8)14(15,16)17/h2-5H,1H3,(H4,18,19,20,21)

>  <InChIKey>
VWQMUQCLRMRITR-UHFFFAOYSA-N

>  <SMILES>
Cc1c2c(nc(nc2sc1Sc3ccc(cc3)C(F)(F)F)N)N

$$$$
