
 OpenBabel08131916483D

 35 37  0  0  0  0  0  0  0  0999 V2000
   28.7291   13.1190   -1.5636 C   0  0  0  0  0  0  0  0  0  0  0  0
   27.7943   12.7096   -0.6242 C   0  0  0  0  0  0  0  0  0  0  0  0
   26.5727   12.2644   -1.1508 C   0  0  0  0  0  0  0  0  0  0  0  0
   26.4027   12.2405   -2.4874 N   0  0  0  0  0  0  0  0  0  0  0  0
   28.5928   13.1093   -2.8973 N   0  0  0  0  0  0  0  0  0  0  0  0
   27.8679   12.4163    2.0012 C   0  0  0  0  0  0  0  0  0  0  0  0
   28.4128   12.8443    0.6688 C   0  0  0  0  0  0  0  0  0  0  0  0
   25.4746   11.8699   -0.3903 N   0  0  0  0  0  0  0  0  0  0  0  0
   27.3944   12.6604   -3.2834 C   0  0  0  0  0  0  0  0  0  0  0  0
   27.1583   12.5717   -4.6441 N   0  0  0  0  0  0  0  0  0  0  0  0
   29.8510   13.5379   -0.9047 N   0  0  0  0  0  0  0  0  0  0  0  0
   29.6623   13.4068    0.4417 C   0  0  0  0  0  0  0  0  0  0  0  0
   30.9304   13.8032    1.5554 S   0  0  0  0  0  0  0  0  0  0  0  0
   31.3598   15.5101    1.1679 C   0  0  0  0  0  0  0  0  0  0  0  0
   30.4238   16.5603    1.0552 C   0  0  0  0  0  0  0  0  0  0  0  0
   30.8408   17.8842    0.8388 C   0  0  0  0  0  0  0  0  0  0  0  0
   32.1918   18.2027    0.7699 C   0  0  0  0  0  0  0  0  0  0  0  0
   33.1354   17.1934    0.9061 C   0  0  0  0  0  0  0  0  0  0  0  0
   32.7294   15.8641    1.0976 C   0  0  0  0  0  0  0  0  0  0  0  0
   24.6765   11.7906   -1.0139 H   0  0  0  0  0  0  0  0  0  0  0  0
   25.3099   12.5062    0.3773 H   0  0  0  0  0  0  0  0  0  0  0  0
   28.0354   12.4420   -5.1273 H   0  0  0  0  0  0  0  0  0  0  0  0
   26.4426   11.8743   -4.8006 H   0  0  0  0  0  0  0  0  0  0  0  0
   30.6876   13.8641   -1.3622 H   0  0  0  0  0  0  0  0  0  0  0  0
   28.7143   16.3557    1.2332 Cl  0  0  0  0  0  0  0  0  0  0  0  0
   30.1047   18.6815    0.7490 H   0  0  0  0  0  0  0  0  0  0  0  0
   34.1936   17.4467    0.8766 H   0  0  0  0  0  0  0  0  0  0  0  0
   34.0149   14.7062    1.2616 Cl  0  0  0  0  0  0  0  0  0  0  0  0
   26.7098   13.2549    2.5185 C   0  0  0  0  0  0  0  0  0  0  0  0
   26.6709   14.2519    2.0723 H   0  0  0  0  0  0  0  0  0  0  0  0
   26.7810   13.3663    3.6057 H   0  0  0  0  0  0  0  0  0  0  0  0
   25.7557   12.7558    2.3283 H   0  0  0  0  0  0  0  0  0  0  0  0
   28.6676   12.4549    2.7506 H   0  0  0  0  0  0  0  0  0  0  0  0
   27.5703   11.3622    1.9490 H   0  0  0  0  0  0  0  0  0  0  0  0
   32.5059   19.2343    0.6291 H   0  0  0  0  0  0  0  0  0  0  0  0
  1 11  1  0  0  0  0
  1  2  2  0  0  0  0
  2  7  1  0  0  0  0
  3  2  1  0  0  0  0
  3  8  1  0  0  0  0
  4  3  2  0  0  0  0
  5  1  1  0  0  0  0
  6 33  1  0  0  0  0
  6 34  1  0  0  0  0
  7  6  1  0  0  0  0
  8 20  1  0  0  0  0
  8 21  1  0  0  0  0
  9  5  2  0  0  0  0
  9  4  1  0  0  0  0
 10  9  1  0  0  0  0
 10 22  1  0  0  0  0
 10 23  1  0  0  0  0
 11 12  1  0  0  0  0
 11 24  1  0  0  0  0
 12  7  2  0  0  0  0
 12 13  1  0  0  0  0
 14 13  1  0  0  0  0
 14 19  2  0  0  0  0
 15 14  1  0  0  0  0
 15 25  1  0  0  0  0
 16 15  2  0  0  0  0
 16 17  1  0  0  0  0
 16 26  1  0  0  0  0
 17 18  2  0  0  0  0
 17 35  1  0  0  0  0
 18 19  1  0  0  0  0
 18 27  1  0  0  0  0
 19 28  1  0  0  0  0
 29  6  1  0  0  0  0
 29 30  1  0  0  0  0
 29 31  1  0  0  0  0
 29 32  1  0  0  0  0
M  END
>  <MOL Chiral Flag>
0

>  <InstanceId>
5HPB_63W_A_202

>  <ChemCompId>
63W

>  <PdbId>
5HPB

>  <ChainId>
A

>  <ResidueNumber>
202

>  <InsertionCode>


>  <Model>
1

>  <AltIds>


>  <MissingHeavyAtoms>
0

>  <ObservedFormula>
C14 N4 S2 F3

>  <Name>
5-methyl-6-{[4-(trifluoromethyl)phenyl]sulfanyl}thieno[2,3-d]pyrimidine-2,4-diamine

>  <SystematicName>
5-methyl-6-[4-(trifluoromethyl)phenyl]sulfanyl-thieno[2,3-d]pyrimidine-2,4-diamine

>  <Synonyms>


>  <Type>
NON-POLYMER

>  <Formula>
C14 H11 F3 N4 S2

>  <MolecularWeight>
356.389

>  <ModifiedDate>
2017-01-20

>  <Parent>


>  <OneLetterCode>


>  <SubcomponentList>


>  <AmbiguousFlag>
N

>  <InChI>
InChI=1S/C14H11F3N4S2/c1-6-9-10(18)20-13(19)21-11(9)23-12(6)22-8-4-2-7(3-5-8)14(15,16)17/h2-5H,1H3,(H4,18,19,20,21)

>  <InChIKey>
VWQMUQCLRMRITR-UHFFFAOYSA-N

>  <SMILES>
Cc1c2c(nc(nc2sc1Sc3ccc(cc3)C(F)(F)F)N)N

$$$$
