
 OpenBabel08131916503D

 38 40  0  0  0  0  0  0  0  0999 V2000
   28.7061   13.0080   -1.6409 C   0  0  0  0  0  0  0  0  0  0  0  0
   27.7879   12.7143   -0.6360 C   0  0  0  0  0  0  0  0  0  0  0  0
   26.5160   12.3387   -1.1012 C   0  0  0  0  0  0  0  0  0  0  0  0
   26.2847   12.2833   -2.4285 N   0  0  0  0  0  0  0  0  0  0  0  0
   28.5054   12.9643   -2.9645 N   0  0  0  0  0  0  0  0  0  0  0  0
   28.0416   12.5963    2.0334 C   0  0  0  0  0  0  0  0  0  0  0  0
   28.4830   12.8798    0.6211 C   0  0  0  0  0  0  0  0  0  0  0  0
   25.4077   12.0619   -0.3036 N   0  0  0  0  0  0  0  0  0  0  0  0
   27.2614   12.6055   -3.2839 C   0  0  0  0  0  0  0  0  0  0  0  0
   26.9470   12.5271   -4.6278 N   0  0  0  0  0  0  0  0  0  0  0  0
   29.8880   13.3661   -1.0622 N   0  0  0  0  0  0  0  0  0  0  0  0
   29.7552   13.3389    0.2919 C   0  0  0  0  0  0  0  0  0  0  0  0
   31.1063   13.7159    1.3004 S   0  0  0  0  0  0  0  0  0  0  0  0
   31.4517   15.4753    1.0777 C   0  0  0  0  0  0  0  0  0  0  0  0
   30.4772   16.4798    0.8318 C   0  0  0  0  0  0  0  0  0  0  0  0
   30.8708   17.8332    0.7502 C   0  0  0  0  0  0  0  0  0  0  0  0
   32.1858   18.2206    0.9567 C   0  0  0  0  0  0  0  0  0  0  0  0
   33.1409   17.2563    1.2313 C   0  0  0  0  0  0  0  0  0  0  0  0
   32.8016   15.8890    1.2864 C   0  0  0  0  0  0  0  0  0  0  0  0
   24.6113   11.9534   -0.9262 H   0  0  0  0  0  0  0  0  0  0  0  0
   25.2547   12.8039    0.3662 H   0  0  0  0  0  0  0  0  0  0  0  0
   27.7847   12.3403   -5.1601 H   0  0  0  0  0  0  0  0  0  0  0  0
   26.1731   11.8878   -4.7470 H   0  0  0  0  0  0  0  0  0  0  0  0
   30.7218   13.6216   -1.5733 H   0  0  0  0  0  0  0  0  0  0  0  0
   29.0031   16.2318    0.6547 C   0  0  0  0  0  0  0  0  0  0  0  0
   30.1316   18.6071    0.5486 H   0  0  0  0  0  0  0  0  0  0  0  0
   34.1656   17.5724    1.4205 H   0  0  0  0  0  0  0  0  0  0  0  0
   26.6712   13.0923    2.4470 C   0  0  0  0  0  0  0  0  0  0  0  0
   26.4008   14.0337    1.9602 H   0  0  0  0  0  0  0  0  0  0  0  0
   26.6420   13.2496    3.5310 H   0  0  0  0  0  0  0  0  0  0  0  0
   25.9099   12.3375    2.2364 H   0  0  0  0  0  0  0  0  0  0  0  0
   28.7500   13.0712    2.7239 H   0  0  0  0  0  0  0  0  0  0  0  0
   28.1213   11.5194    2.2214 H   0  0  0  0  0  0  0  0  0  0  0  0
   32.4594   19.2714    0.9219 H   0  0  0  0  0  0  0  0  0  0  0  0
   28.4276   17.1620    0.7273 H   0  0  0  0  0  0  0  0  0  0  0  0
   28.6149   15.5850    1.4440 H   0  0  0  0  0  0  0  0  0  0  0  0
   28.8006   15.8243   -0.3385 H   0  0  0  0  0  0  0  0  0  0  0  0
   33.5315   15.1851    1.4782 H   0  0  0  0  0  0  0  0  0  0  0  0
  1 11  1  0  0  0  0
  1  2  2  0  0  0  0
  2  7  1  0  0  0  0
  3  2  1  0  0  0  0
  3  8  1  0  0  0  0
  4  3  2  0  0  0  0
  5  1  1  0  0  0  0
  6 32  1  0  0  0  0
  6 33  1  0  0  0  0
  7  6  1  0  0  0  0
  8 20  1  0  0  0  0
  8 21  1  0  0  0  0
  9  5  2  0  0  0  0
  9  4  1  0  0  0  0
 10  9  1  0  0  0  0
 10 22  1  0  0  0  0
 10 23  1  0  0  0  0
 11 12  1  0  0  0  0
 11 24  1  0  0  0  0
 12  7  2  0  0  0  0
 12 13  1  0  0  0  0
 14 13  1  0  0  0  0
 14 19  2  0  0  0  0
 15 14  1  0  0  0  0
 15 25  1  0  0  0  0
 16 15  2  0  0  0  0
 16 17  1  0  0  0  0
 16 26  1  0  0  0  0
 17 18  2  0  0  0  0
 17 34  1  0  0  0  0
 18 19  1  0  0  0  0
 18 27  1  0  0  0  0
 19 38  1  0  0  0  0
 25 35  1  0  0  0  0
 25 36  1  0  0  0  0
 25 37  1  0  0  0  0
 28  6  1  0  0  0  0
 28 29  1  0  0  0  0
 28 30  1  0  0  0  0
 28 31  1  0  0  0  0
M  END
>  <MOL Chiral Flag>
0

>  <InstanceId>
5HPB_63W_A_202

>  <ChemCompId>
63W

>  <PdbId>
5HPB

>  <ChainId>
A

>  <ResidueNumber>
202

>  <InsertionCode>


>  <Model>
1

>  <AltIds>


>  <MissingHeavyAtoms>
0

>  <ObservedFormula>
C14 N4 S2 F3

>  <Name>
5-methyl-6-{[4-(trifluoromethyl)phenyl]sulfanyl}thieno[2,3-d]pyrimidine-2,4-diamine

>  <SystematicName>
5-methyl-6-[4-(trifluoromethyl)phenyl]sulfanyl-thieno[2,3-d]pyrimidine-2,4-diamine

>  <Synonyms>


>  <Type>
NON-POLYMER

>  <Formula>
C14 H11 F3 N4 S2

>  <MolecularWeight>
356.389

>  <ModifiedDate>
2017-01-20

>  <Parent>


>  <OneLetterCode>


>  <SubcomponentList>


>  <AmbiguousFlag>
N

>  <InChI>
InChI=1S/C14H11F3N4S2/c1-6-9-10(18)20-13(19)21-11(9)23-12(6)22-8-4-2-7(3-5-8)14(15,16)17/h2-5H,1H3,(H4,18,19,20,21)

>  <InChIKey>
VWQMUQCLRMRITR-UHFFFAOYSA-N

>  <SMILES>
Cc1c2c(nc(nc2sc1Sc3ccc(cc3)C(F)(F)F)N)N

$$$$
