
 OpenBabel08191917123D

 37 39  0  0  0  0  0  0  0  0999 V2000
   28.7440   13.1796   -1.5175 C   0  0  0  0  0  0  0  0  0  0  0  0
   27.8103   12.7021   -0.6111 C   0  0  0  0  0  0  0  0  0  0  0  0
   26.6212   12.2133   -1.1727 C   0  0  0  0  0  0  0  0  0  0  0  0
   26.4722   12.2427   -2.5129 N   0  0  0  0  0  0  0  0  0  0  0  0
   28.6291   13.2210   -2.8507 N   0  0  0  0  0  0  0  0  0  0  0  0
   27.7842   12.4156    2.0018 C   0  0  0  0  0  0  0  0  0  0  0  0
   28.3895   12.8383    0.6990 C   0  0  0  0  0  0  0  0  0  0  0  0
   25.5576   11.6968   -0.4424 N   0  0  0  0  0  0  0  0  0  0  0  0
   27.4558   12.7419   -3.2751 C   0  0  0  0  0  0  0  0  0  0  0  0
   27.2508   12.7063   -4.6427 N   0  0  0  0  0  0  0  0  0  0  0  0
   29.8414   13.6008   -0.8242 N   0  0  0  0  0  0  0  0  0  0  0  0
   29.6385   13.4100    0.5135 C   0  0  0  0  0  0  0  0  0  0  0  0
   30.9049   13.7733    1.6430 S   0  0  0  0  0  0  0  0  0  0  0  0
   31.3172   15.4532    1.2067 C   0  0  0  0  0  0  0  0  0  0  0  0
   30.3448   16.4549    1.0889 C   0  0  0  0  0  0  0  0  0  0  0  0
   30.7148   17.7760    0.8111 C   0  0  0  0  0  0  0  0  0  0  0  0
   32.0698   18.0985    0.6622 C   0  0  0  0  0  0  0  0  0  0  0  0
   33.0514   17.1073    0.7808 C   0  0  0  0  0  0  0  0  0  0  0  0
   32.6695   15.7901    1.0549 C   0  0  0  0  0  0  0  0  0  0  0  0
   24.7310   11.6548   -1.0292 H   0  0  0  0  0  0  0  0  0  0  0  0
   25.4237   12.1259    0.4612 H   0  0  0  0  0  0  0  0  0  0  0  0
   28.1440   12.6566   -5.1121 H   0  0  0  0  0  0  0  0  0  0  0  0
   26.5835   11.9760   -4.8516 H   0  0  0  0  0  0  0  0  0  0  0  0
   30.6750   13.9737   -1.2522 H   0  0  0  0  0  0  0  0  0  0  0  0
   29.2908   16.2207    1.2276 H   0  0  0  0  0  0  0  0  0  0  0  0
   29.9403   18.5365    0.7283 H   0  0  0  0  0  0  0  0  0  0  0  0
   34.1093   17.3417    0.6776 H   0  0  0  0  0  0  0  0  0  0  0  0
   33.4418   15.0302    1.1653 H   0  0  0  0  0  0  0  0  0  0  0  0
   26.8869   13.4871    2.6028 C   0  0  0  0  0  0  0  0  0  0  0  0
   27.4224   14.4347    2.7236 H   0  0  0  0  0  0  0  0  0  0  0  0
   26.5276   13.1704    3.5871 H   0  0  0  0  0  0  0  0  0  0  0  0
   26.0137   13.6774    1.9708 H   0  0  0  0  0  0  0  0  0  0  0  0
   28.5756   12.1728    2.7205 H   0  0  0  0  0  0  0  0  0  0  0  0
   27.2139   11.4898    1.8661 H   0  0  0  0  0  0  0  0  0  0  0  0
   33.6756   19.7268    0.2692 O   0  0  0  0  0  0  0  0  0  0  0  0
   32.4667   19.4876    0.3970 N   0  0  0  0  0  0  0  0  0  0  0  0
   31.5687   20.3382    0.3183 O   0  0  0  0  0  0  0  0  0  0  0  0
  1 11  1  0  0  0  0
  1  2  2  0  0  0  0
  2  7  1  0  0  0  0
  3  2  1  0  0  0  0
  3  8  1  0  0  0  0
  4  3  2  0  0  0  0
  5  1  1  0  0  0  0
  6 33  1  0  0  0  0
  6 34  1  0  0  0  0
  7  6  1  0  0  0  0
  8 20  1  0  0  0  0
  8 21  1  0  0  0  0
  9  5  2  0  0  0  0
  9  4  1  0  0  0  0
 10  9  1  0  0  0  0
 10 22  1  0  0  0  0
 10 23  1  0  0  0  0
 11 12  1  0  0  0  0
 11 24  1  0  0  0  0
 12  7  2  0  0  0  0
 12 13  1  0  0  0  0
 14 13  1  0  0  0  0
 14 19  2  0  0  0  0
 15 14  1  0  0  0  0
 15 25  1  0  0  0  0
 16 15  2  0  0  0  0
 16 17  1  0  0  0  0
 16 26  1  0  0  0  0
 17 18  2  0  0  0  0
 18 19  1  0  0  0  0
 18 27  1  0  0  0  0
 19 28  1  0  0  0  0
 29  6  1  0  0  0  0
 29 30  1  0  0  0  0
 29 31  1  0  0  0  0
 29 32  1  0  0  0  0
 36 17  1  0  0  0  0
 36 35  2  0  0  0  0
 36 37  2  0  0  0  0
M  END
>  <MOL Chiral Flag>
0

>  <InstanceId>
5HPB_63W_A_202

>  <ChemCompId>
63W

>  <PdbId>
5HPB

>  <ChainId>
A

>  <ResidueNumber>
202

>  <InsertionCode>


>  <Model>
1

>  <AltIds>


>  <MissingHeavyAtoms>
0

>  <ObservedFormula>
C14 N4 S2 F3

>  <Name>
5-methyl-6-{[4-(trifluoromethyl)phenyl]sulfanyl}thieno[2,3-d]pyrimidine-2,4-diamine

>  <SystematicName>
5-methyl-6-[4-(trifluoromethyl)phenyl]sulfanyl-thieno[2,3-d]pyrimidine-2,4-diamine

>  <Synonyms>


>  <Type>
NON-POLYMER

>  <Formula>
C14 H11 F3 N4 S2

>  <MolecularWeight>
356.389

>  <ModifiedDate>
2017-01-20

>  <Parent>


>  <OneLetterCode>


>  <SubcomponentList>


>  <AmbiguousFlag>
N

>  <InChI>
InChI=1S/C14H11F3N4S2/c1-6-9-10(18)20-13(19)21-11(9)23-12(6)22-8-4-2-7(3-5-8)14(15,16)17/h2-5H,1H3,(H4,18,19,20,21)

>  <InChIKey>
VWQMUQCLRMRITR-UHFFFAOYSA-N

>  <SMILES>
Cc1c2c(nc(nc2sc1Sc3ccc(cc3)C(F)(F)F)N)N

$$$$
