
 OpenBabel09181910123D

 58 60  0  0  0  0  0  0  0  0999 V2000
    8.8290    1.9429   16.2769 C   0  0  0  0  0  0  0  0  0  0  0  0
    9.4331    2.3510   17.6068 N   0  3  0  0  0  0  0  0  0  0  0  0
    8.8735    3.6279   18.2165 C   0  0  0  0  0  0  0  0  0  0  0  0
    7.8963    3.4752   19.3515 C   0  0  0  0  0  0  0  0  0  0  0  0
    7.3328    4.6088   20.0649 C   0  0  0  0  0  0  0  0  0  0  0  0
    7.7129    6.2205   19.5935 Cl  0  0  0  0  0  0  0  0  0  0  0  0
    7.4177    2.2970   19.8923 C   0  0  0  0  0  0  0  0  0  0  0  0
    6.3517    2.5395   21.1972 S   0  0  0  0  0  0  0  0  0  0  0  0
    6.4883    4.2503   21.1010 C   0  0  0  0  0  0  0  0  0  0  0  0
    5.7139    5.0369   22.0633 C   0  0  0  0  0  0  0  0  0  0  0  0
    4.8089    4.5441   22.7291 O   0  0  0  0  0  0  0  0  0  0  0  0
    6.1451    6.3442   22.2483 N   0  0  0  0  0  0  0  0  0  0  0  0
    5.5059    7.2468   23.1382 C   0  0  0  0  0  0  0  0  0  0  0  0
    4.1147    7.4423   23.1223 C   0  0  0  0  0  0  0  0  0  0  0  0
    3.3139    6.8356   22.1878 O   0  0  0  0  0  0  0  0  0  0  0  0
    3.2044    7.6522   21.0215 C   0  0  0  0  0  0  0  0  0  0  0  0
    3.4942    8.2817   24.0510 C   0  0  0  0  0  0  0  0  0  0  0  0
    4.2704    8.9892   24.9619 C   0  0  0  0  0  0  0  0  0  0  0  0
    3.5132   10.0390   26.0940 Cl  0  0  0  0  0  0  0  0  0  0  0  0
    5.6593    8.8670   24.9584 C   0  0  0  0  0  0  0  0  0  0  0  0
    6.2775    7.9939   24.0505 C   0  0  0  0  0  0  0  0  0  0  0  0
    7.7550    7.8252   24.0833 C   0  0  0  0  0  0  0  0  0  0  0  0
    8.3362    7.6962   23.0098 O   0  0  0  0  0  0  0  0  0  0  0  0
    8.2938    7.7032   25.3469 N   0  0  0  0  0  0  0  0  0  0  0  0
    9.6663    7.6641   25.6224 C   0  0  0  0  0  0  0  0  0  0  0  0
   10.0600    7.2140   26.8811 C   0  0  0  0  0  0  0  0  0  0  0  0
   11.4202    7.1764   27.1961 C   0  0  0  0  0  0  0  0  0  0  0  0
   12.3428    7.6213   26.2602 C   0  0  0  0  0  0  0  0  0  0  0  0
   14.0221    7.6016   26.6033 Cl  0  0  0  0  0  0  0  0  0  0  0  0
   11.8669    8.0751   25.0429 C   0  0  0  0  0  0  0  0  0  0  0  0
   10.5541    8.0906   24.7050 N   0  0  0  0  0  0  0  0  0  0  0  0
    7.3190    1.8118   16.3380 C   0  0  0  0  0  0  0  0  0  0  0  0
   10.9531    2.3268   17.5758 C   0  0  0  0  0  0  0  0  0  0  0  0
    9.2671    0.9703   16.0241 H   0  0  0  0  0  0  0  0  0  0  0  0
    9.1241    2.6775   15.5234 H   0  0  0  0  0  0  0  0  0  0  0  0
    9.1991    1.5953   18.2564 H   0  0  0  0  0  0  0  0  0  0  0  0
    8.4416    4.2152   17.3986 H   0  0  0  0  0  0  0  0  0  0  0  0
    9.7253    4.1905   18.6131 H   0  0  0  0  0  0  0  0  0  0  0  0
    7.6165    1.2728   19.6110 H   0  0  0  0  0  0  0  0  0  0  0  0
    7.1349    6.5290   22.0748 H   0  0  0  0  0  0  0  0  0  0  0  0
    2.5850    7.1174   20.2953 H   0  0  0  0  0  0  0  0  0  0  0  0
    4.1836    7.8308   20.5636 H   0  0  0  0  0  0  0  0  0  0  0  0
    2.7132    8.6039   21.2515 H   0  0  0  0  0  0  0  0  0  0  0  0
    2.4127    8.3891   24.0415 H   0  0  0  0  0  0  0  0  0  0  0  0
    6.2503    9.4587   25.6536 H   0  0  0  0  0  0  0  0  0  0  0  0
    7.6689    7.5340   26.1228 H   0  0  0  0  0  0  0  0  0  0  0  0
    9.3352    6.8698   27.6115 H   0  0  0  0  0  0  0  0  0  0  0  0
   11.7462    6.8045   28.1635 H   0  0  0  0  0  0  0  0  0  0  0  0
   12.5393    8.4531   24.2782 H   0  0  0  0  0  0  0  0  0  0  0  0
    6.9998    1.1441   17.1426 H   0  0  0  0  0  0  0  0  0  0  0  0
    6.9489    1.3958   15.3945 H   0  0  0  0  0  0  0  0  0  0  0  0
    6.8346    2.7835   16.4720 H   0  0  0  0  0  0  0  0  0  0  0  0
   11.5522    3.4643   16.7644 C   0  0  0  0  0  0  0  0  0  0  0  0
   11.2469    1.3556   17.1628 H   0  0  0  0  0  0  0  0  0  0  0  0
   11.2904    2.3671   18.6172 H   0  0  0  0  0  0  0  0  0  0  0  0
   11.1372    3.5247   15.7555 H   0  0  0  0  0  0  0  0  0  0  0  0
   12.6329    3.3162   16.6684 H   0  0  0  0  0  0  0  0  0  0  0  0
   11.4059    4.4331   17.2513 H   0  0  0  0  0  0  0  0  0  0  0  0
  1  2  1  0  0  0  0
  1 32  1  0  0  0  0
  1 34  1  0  0  0  0
  1 35  1  0  0  0  0
  2  3  1  0  0  0  0
  2 33  1  0  0  0  0
  2 36  1  0  0  0  0
  3  4  1  0  0  0  0
  3 37  1  0  0  0  0
  3 38  1  0  0  0  0
  4  7  2  0  0  0  0
  4  5  1  0  0  0  0
  5  6  1  0  0  0  0
  5  9  2  0  0  0  0
  7  8  1  0  0  0  0
  7 39  1  0  0  0  0
  8  9  1  0  0  0  0
  9 10  1  0  0  0  0
 10 12  1  0  0  0  0
 10 11  2  0  0  0  0
 12 13  1  0  0  0  0
 12 40  1  0  0  0  0
 13 14  2  0  0  0  0
 13 21  1  0  0  0  0
 14 15  1  0  0  0  0
 14 17  1  0  0  0  0
 15 16  1  0  0  0  0
 16 41  1  0  0  0  0
 16 42  1  0  0  0  0
 16 43  1  0  0  0  0
 17 18  2  0  0  0  0
 17 44  1  0  0  0  0
 18 20  1  0  0  0  0
 18 19  1  0  0  0  0
 20 21  2  0  0  0  0
 20 45  1  0  0  0  0
 21 22  1  0  0  0  0
 22 23  2  0  0  0  0
 22 24  1  0  0  0  0
 24 25  1  0  0  0  0
 24 46  1  0  0  0  0
 25 31  1  0  0  0  0
 25 26  2  0  0  0  0
 26 27  1  0  0  0  0
 26 47  1  0  0  0  0
 27 28  2  0  0  0  0
 27 48  1  0  0  0  0
 28 30  1  0  0  0  0
 28 29  1  0  0  0  0
 30 31  2  0  0  0  0
 30 49  1  0  0  0  0
 32 50  1  0  0  0  0
 32 51  1  0  0  0  0
 32 52  1  0  0  0  0
 33 53  1  0  0  0  0
 33 54  1  0  0  0  0
 33 55  1  0  0  0  0
 53 56  1  0  0  0  0
 53 57  1  0  0  0  0
 53 58  1  0  0  0  0
M  CHG  1   2   1
M  END
>  <MOL Chiral Flag>
0

>  <InstanceId>
2P3T_993_B_500

>  <ChemCompId>
993

>  <PdbId>
2P3T

>  <ChainId>
B

>  <ResidueNumber>
500

>  <InsertionCode>


>  <Model>
1

>  <AltIds>


>  <MissingHeavyAtoms>
0

>  <ObservedFormula>
C23 N6 O3 S Cl3

>  <Name>
3-CHLORO-4-(2-METHYLAMINO-IMIDAZOL-1-YLMETHYL)-THIOPHENE-2-CARBOXYLIC ACID [4-CHLORO-2-(5-CHLORO-PYRIDIN-2-YLCARBAMOYL)-6-METHOXY-PHENYL]-AMIDE

>  <SystematicName>
3-chloro-N-[4-chloro-2-[(5-chloropyridin-2-yl)carbamoyl]-6-methoxy-phenyl]-4-[(2-methylaminoimidazol-1-yl)methyl]thiophene-2-carboxamide

>  <Synonyms>


>  <Type>
NON-POLYMER

>  <Formula>
C23 H19 Cl3 N6 O3 S

>  <MolecularWeight>
565.859

>  <ModifiedDate>
2011-06-04

>  <Parent>


>  <OneLetterCode>


>  <SubcomponentList>


>  <AmbiguousFlag>


>  <InChI>
InChI=1S/C23H19Cl3N6O3S/c1-27-23-28-5-6-32(23)10-12-11-36-20(18(12)26)22(34)31-19-15(7-14(25)8-16(19)35-2)21(33)30-17-4-3-13(24)9-29-17/h3-9,11H,10H2,1-2H3,(H,27,28)(H,31,34)(H,29,30,33)

>  <InChIKey>
LLHSZBPXQIOQJJ-UHFFFAOYSA-N

>  <SMILES>
CNc1nccn1Cc2csc(c2Cl)C(=O)Nc3c(cc(cc3OC)Cl)C(=O)Nc4ccc(cn4)Cl

$$$$
