
 OpenBabel09181910133D

 52 54  0  0  0  0  0  0  0  0999 V2000
    8.9553    1.8596   16.3553 C   0  0  0  0  0  0  0  0  0  0  0  0
    9.3936    2.2875   17.7172 N   0  3  0  0  0  0  0  0  0  0  0  0
    8.8415    3.5765   18.2513 C   0  0  0  0  0  0  0  0  0  0  0  0
    7.8789    3.4580   19.3983 C   0  0  0  0  0  0  0  0  0  0  0  0
    7.3403    4.6031   20.1114 C   0  0  0  0  0  0  0  0  0  0  0  0
    7.7520    6.2049   19.6356 Cl  0  0  0  0  0  0  0  0  0  0  0  0
    7.3670    2.2903   19.9325 C   0  0  0  0  0  0  0  0  0  0  0  0
    6.3184    2.5536   21.2459 S   0  0  0  0  0  0  0  0  0  0  0  0
    6.4829    4.2620   21.1438 C   0  0  0  0  0  0  0  0  0  0  0  0
    5.7111    5.0607   22.0982 C   0  0  0  0  0  0  0  0  0  0  0  0
    4.8095    4.5746   22.7745 O   0  0  0  0  0  0  0  0  0  0  0  0
    6.1360    6.3721   22.2621 N   0  0  0  0  0  0  0  0  0  0  0  0
    5.4986    7.2762   23.1522 C   0  0  0  0  0  0  0  0  0  0  0  0
    4.1069    7.4714   23.1378 C   0  0  0  0  0  0  0  0  0  0  0  0
    3.3045    6.8611   22.2067 O   0  0  0  0  0  0  0  0  0  0  0  0
    3.2028    7.6668   21.0323 C   0  0  0  0  0  0  0  0  0  0  0  0
    3.4881    8.3095   24.0674 C   0  0  0  0  0  0  0  0  0  0  0  0
    4.2659    9.0150   24.9795 C   0  0  0  0  0  0  0  0  0  0  0  0
    3.5097   10.0624   26.1146 Cl  0  0  0  0  0  0  0  0  0  0  0  0
    5.6543    8.8916   24.9756 C   0  0  0  0  0  0  0  0  0  0  0  0
    6.2714    8.0200   24.0651 C   0  0  0  0  0  0  0  0  0  0  0  0
    7.7482    7.8469   24.0961 C   0  0  0  0  0  0  0  0  0  0  0  0
    8.3271    7.7179   23.0214 O   0  0  0  0  0  0  0  0  0  0  0  0
    8.2889    7.7189   25.3583 N   0  0  0  0  0  0  0  0  0  0  0  0
    9.6620    7.6727   25.6297 C   0  0  0  0  0  0  0  0  0  0  0  0
   10.0577    7.2191   26.8864 C   0  0  0  0  0  0  0  0  0  0  0  0
   11.4186    7.1764   27.1973 C   0  0  0  0  0  0  0  0  0  0  0  0
   12.3402    7.6193   26.2594 C   0  0  0  0  0  0  0  0  0  0  0  0
   14.0203    7.5947   26.5982 Cl  0  0  0  0  0  0  0  0  0  0  0  0
   11.8625    8.0758   25.0438 C   0  0  0  0  0  0  0  0  0  0  0  0
   10.5488    8.0965   24.7100 N   0  0  0  0  0  0  0  0  0  0  0  0
    7.4521    1.6962   16.2624 C   0  0  0  0  0  0  0  0  0  0  0  0
    9.4544    0.9035   16.1665 H   0  0  0  0  0  0  0  0  0  0  0  0
    9.3297    2.5996   15.6416 H   0  0  0  0  0  0  0  0  0  0  0  0
   10.4167    2.3904   17.6863 H   0  0  0  0  0  0  0  0  0  0  0  0
    9.2424    1.5283   18.3897 H   0  0  0  0  0  0  0  0  0  0  0  0
    8.3907    4.1213   17.4147 H   0  0  0  0  0  0  0  0  0  0  0  0
    9.7186    4.1453   18.5810 H   0  0  0  0  0  0  0  0  0  0  0  0
    7.5324    1.2630   19.6404 H   0  0  0  0  0  0  0  0  0  0  0  0
    7.1258    6.5566   22.0878 H   0  0  0  0  0  0  0  0  0  0  0  0
    2.5834    7.1277   20.3093 H   0  0  0  0  0  0  0  0  0  0  0  0
    4.1841    7.8366   20.5755 H   0  0  0  0  0  0  0  0  0  0  0  0
    2.7151    8.6227   21.2517 H   0  0  0  0  0  0  0  0  0  0  0  0
    2.4064    8.4173   24.0597 H   0  0  0  0  0  0  0  0  0  0  0  0
    6.2463    9.4802   25.6724 H   0  0  0  0  0  0  0  0  0  0  0  0
    7.6651    7.5508   26.1353 H   0  0  0  0  0  0  0  0  0  0  0  0
    9.3338    6.8765   27.6185 H   0  0  0  0  0  0  0  0  0  0  0  0
   11.7463    6.8025   28.1634 H   0  0  0  0  0  0  0  0  0  0  0  0
   12.5339    8.4519   24.2774 H   0  0  0  0  0  0  0  0  0  0  0  0
    7.0678    1.0306   17.0406 H   0  0  0  0  0  0  0  0  0  0  0  0
    7.1865    1.2664   15.2907 H   0  0  0  0  0  0  0  0  0  0  0  0
    6.9365    2.6581   16.3420 H   0  0  0  0  0  0  0  0  0  0  0  0
  1  2  1  0  0  0  0
  1 32  1  0  0  0  0
  1 33  1  0  0  0  0
  1 34  1  0  0  0  0
  2  3  1  0  0  0  0
  2 35  1  0  0  0  0
  2 36  1  0  0  0  0
  3  4  1  0  0  0  0
  3 37  1  0  0  0  0
  3 38  1  0  0  0  0
  4  7  2  0  0  0  0
  4  5  1  0  0  0  0
  5  6  1  0  0  0  0
  5  9  2  0  0  0  0
  7  8  1  0  0  0  0
  7 39  1  0  0  0  0
  8  9  1  0  0  0  0
  9 10  1  0  0  0  0
 10 12  1  0  0  0  0
 10 11  2  0  0  0  0
 12 13  1  0  0  0  0
 12 40  1  0  0  0  0
 13 14  2  0  0  0  0
 13 21  1  0  0  0  0
 14 15  1  0  0  0  0
 14 17  1  0  0  0  0
 15 16  1  0  0  0  0
 16 41  1  0  0  0  0
 16 42  1  0  0  0  0
 16 43  1  0  0  0  0
 17 18  2  0  0  0  0
 17 44  1  0  0  0  0
 18 20  1  0  0  0  0
 18 19  1  0  0  0  0
 20 21  2  0  0  0  0
 20 45  1  0  0  0  0
 21 22  1  0  0  0  0
 22 23  2  0  0  0  0
 22 24  1  0  0  0  0
 24 25  1  0  0  0  0
 24 46  1  0  0  0  0
 25 31  1  0  0  0  0
 25 26  2  0  0  0  0
 26 27  1  0  0  0  0
 26 47  1  0  0  0  0
 27 28  2  0  0  0  0
 27 48  1  0  0  0  0
 28 30  1  0  0  0  0
 28 29  1  0  0  0  0
 30 31  2  0  0  0  0
 30 49  1  0  0  0  0
 32 50  1  0  0  0  0
 32 51  1  0  0  0  0
 32 52  1  0  0  0  0
M  CHG  1   2   1
M  END
>  <MOL Chiral Flag>
0

>  <InstanceId>
2P3T_993_B_500

>  <ChemCompId>
993

>  <PdbId>
2P3T

>  <ChainId>
B

>  <ResidueNumber>
500

>  <InsertionCode>


>  <Model>
1

>  <AltIds>


>  <MissingHeavyAtoms>
0

>  <ObservedFormula>
C23 N6 O3 S Cl3

>  <Name>
3-CHLORO-4-(2-METHYLAMINO-IMIDAZOL-1-YLMETHYL)-THIOPHENE-2-CARBOXYLIC ACID [4-CHLORO-2-(5-CHLORO-PYRIDIN-2-YLCARBAMOYL)-6-METHOXY-PHENYL]-AMIDE

>  <SystematicName>
3-chloro-N-[4-chloro-2-[(5-chloropyridin-2-yl)carbamoyl]-6-methoxy-phenyl]-4-[(2-methylaminoimidazol-1-yl)methyl]thiophene-2-carboxamide

>  <Synonyms>


>  <Type>
NON-POLYMER

>  <Formula>
C23 H19 Cl3 N6 O3 S

>  <MolecularWeight>
565.859

>  <ModifiedDate>
2011-06-04

>  <Parent>


>  <OneLetterCode>


>  <SubcomponentList>


>  <AmbiguousFlag>


>  <InChI>
InChI=1S/C23H19Cl3N6O3S/c1-27-23-28-5-6-32(23)10-12-11-36-20(18(12)26)22(34)31-19-15(7-14(25)8-16(19)35-2)21(33)30-17-4-3-13(24)9-29-17/h3-9,11H,10H2,1-2H3,(H,27,28)(H,31,34)(H,29,30,33)

>  <InChIKey>
LLHSZBPXQIOQJJ-UHFFFAOYSA-N

>  <SMILES>
CNc1nccn1Cc2csc(c2Cl)C(=O)Nc3c(cc(cc3OC)Cl)C(=O)Nc4ccc(cn4)Cl

$$$$
