
 OpenBabel09181910123D

 55 57  0  0  0  0  0  0  0  0999 V2000
    8.7973    1.8285   16.3075 C   0  0  0  0  0  0  0  0  0  0  0  0
    9.3919    2.3123   17.6131 N   0  3  2  0  0  0  0  0  0  0  0  0
    8.8064    3.6082   18.1575 C   0  0  0  0  0  0  0  0  0  0  0  0
    7.8757    3.4746   19.3346 C   0  0  0  0  0  0  0  0  0  0  0  0
    7.3323    4.6125   20.0569 C   0  0  0  0  0  0  0  0  0  0  0  0
    7.7020    6.2210   19.5687 Cl  0  0  0  0  0  0  0  0  0  0  0  0
    7.4062    2.3003   19.8931 C   0  0  0  0  0  0  0  0  0  0  0  0
    6.3770    2.5494   21.2242 S   0  0  0  0  0  0  0  0  0  0  0  0
    6.5034    4.2598   21.1084 C   0  0  0  0  0  0  0  0  0  0  0  0
    5.7326    5.0483   22.0723 C   0  0  0  0  0  0  0  0  0  0  0  0
    4.8369    4.5544   22.7494 O   0  0  0  0  0  0  0  0  0  0  0  0
    6.1534    6.3607   22.2433 N   0  0  0  0  0  0  0  0  0  0  0  0
    5.5116    7.2588   23.1366 C   0  0  0  0  0  0  0  0  0  0  0  0
    4.1191    7.4489   23.1213 C   0  0  0  0  0  0  0  0  0  0  0  0
    3.3208    6.8383   22.1869 O   0  0  0  0  0  0  0  0  0  0  0  0
    3.2069    7.6546   21.0210 C   0  0  0  0  0  0  0  0  0  0  0  0
    3.4958    8.2839   24.0511 C   0  0  0  0  0  0  0  0  0  0  0  0
    4.2696    8.9918   24.9645 C   0  0  0  0  0  0  0  0  0  0  0  0
    3.5084   10.0371   26.0982 Cl  0  0  0  0  0  0  0  0  0  0  0  0
    5.6583    8.8731   24.9623 C   0  0  0  0  0  0  0  0  0  0  0  0
    6.2799    8.0043   24.0519 C   0  0  0  0  0  0  0  0  0  0  0  0
    7.7572    7.8373   24.0862 C   0  0  0  0  0  0  0  0  0  0  0  0
    8.3396    7.7123   23.0129 O   0  0  0  0  0  0  0  0  0  0  0  0
    8.2946    7.7108   25.3499 N   0  0  0  0  0  0  0  0  0  0  0  0
    9.6670    7.6698   25.6254 C   0  0  0  0  0  0  0  0  0  0  0  0
   10.0609    7.2120   26.8812 C   0  0  0  0  0  0  0  0  0  0  0  0
   11.4213    7.1714   27.1949 C   0  0  0  0  0  0  0  0  0  0  0  0
   12.3437    7.6211   26.2611 C   0  0  0  0  0  0  0  0  0  0  0  0
   14.0233    7.5977   26.6027 Cl  0  0  0  0  0  0  0  0  0  0  0  0
   11.8674    8.0828   25.0469 C   0  0  0  0  0  0  0  0  0  0  0  0
   10.5545    8.1015   24.7101 N   0  0  0  0  0  0  0  0  0  0  0  0
    7.2855    1.7142   16.3518 C   0  0  0  0  0  0  0  0  0  0  0  0
   10.8947    2.4015   17.5005 C   0  0  0  0  0  0  0  0  0  0  0  0
    9.2314    0.8394   16.1212 H   0  0  0  0  0  0  0  0  0  0  0  0
    9.1197    2.5150   15.5179 H   0  0  0  0  0  0  0  0  0  0  0  0
    9.2267    1.5815   18.3110 H   0  0  0  0  0  0  0  0  0  0  0  0
    8.3152    4.1237   17.3249 H   0  0  0  0  0  0  0  0  0  0  0  0
    9.6535    4.2340   18.4637 H   0  0  0  0  0  0  0  0  0  0  0  0
    7.5895    1.2748   19.6064 H   0  0  0  0  0  0  0  0  0  0  0  0
    7.1425    6.5489   22.0699 H   0  0  0  0  0  0  0  0  0  0  0  0
    2.5866    7.1186   20.2964 H   0  0  0  0  0  0  0  0  0  0  0  0
    4.1847    7.8347   20.5608 H   0  0  0  0  0  0  0  0  0  0  0  0
    2.7145    8.6055   21.2519 H   0  0  0  0  0  0  0  0  0  0  0  0
    2.4138    8.3881   24.0419 H   0  0  0  0  0  0  0  0  0  0  0  0
    6.2473    9.4637   25.6600 H   0  0  0  0  0  0  0  0  0  0  0  0
    7.6692    7.5376   26.1246 H   0  0  0  0  0  0  0  0  0  0  0  0
    9.3363    6.8637   27.6099 H   0  0  0  0  0  0  0  0  0  0  0  0
   11.7477    6.7932   28.1597 H   0  0  0  0  0  0  0  0  0  0  0  0
   12.5394    8.4648   24.2839 H   0  0  0  0  0  0  0  0  0  0  0  0
    6.9479    1.0915   17.1843 H   0  0  0  0  0  0  0  0  0  0  0  0
    6.9260    1.2536   15.4251 H   0  0  0  0  0  0  0  0  0  0  0  0
    6.8051    2.6941   16.4273 H   0  0  0  0  0  0  0  0  0  0  0  0
   11.1421    3.1705   16.7636 H   0  0  0  0  0  0  0  0  0  0  0  0
   11.2709    1.4234   17.1889 H   0  0  0  0  0  0  0  0  0  0  0  0
   11.2957    2.6534   18.4860 H   0  0  0  0  0  0  0  0  0  0  0  0
  1  2  1  0  0  0  0
  1 32  1  0  0  0  0
  1 34  1  0  0  0  0
  1 35  1  0  0  0  0
  2  3  1  0  0  0  0
  2 33  1  0  0  0  0
  2 36  1  1  0  0  0
  3  4  1  0  0  0  0
  3 37  1  0  0  0  0
  3 38  1  0  0  0  0
  4  7  2  0  0  0  0
  4  5  1  0  0  0  0
  5  6  1  0  0  0  0
  5  9  2  0  0  0  0
  7  8  1  0  0  0  0
  7 39  1  0  0  0  0
  8  9  1  0  0  0  0
  9 10  1  0  0  0  0
 10 12  1  0  0  0  0
 10 11  2  0  0  0  0
 12 13  1  0  0  0  0
 12 40  1  0  0  0  0
 13 14  2  0  0  0  0
 13 21  1  0  0  0  0
 14 15  1  0  0  0  0
 14 17  1  0  0  0  0
 15 16  1  0  0  0  0
 16 41  1  0  0  0  0
 16 42  1  0  0  0  0
 16 43  1  0  0  0  0
 17 18  2  0  0  0  0
 17 44  1  0  0  0  0
 18 20  1  0  0  0  0
 18 19  1  0  0  0  0
 20 21  2  0  0  0  0
 20 45  1  0  0  0  0
 21 22  1  0  0  0  0
 22 23  2  0  0  0  0
 22 24  1  0  0  0  0
 24 25  1  0  0  0  0
 24 46  1  0  0  0  0
 25 31  1  0  0  0  0
 25 26  2  0  0  0  0
 26 27  1  0  0  0  0
 26 47  1  0  0  0  0
 27 28  2  0  0  0  0
 27 48  1  0  0  0  0
 28 30  1  0  0  0  0
 28 29  1  0  0  0  0
 30 31  2  0  0  0  0
 30 49  1  0  0  0  0
 32 50  1  0  0  0  0
 32 51  1  0  0  0  0
 32 52  1  0  0  0  0
 33 53  1  0  0  0  0
 33 54  1  0  0  0  0
 33 55  1  0  0  0  0
M  CHG  1   2   1
M  END
>  <MOL Chiral Flag>
0

>  <InstanceId>
2P3T_993_B_500

>  <ChemCompId>
993

>  <PdbId>
2P3T

>  <ChainId>
B

>  <ResidueNumber>
500

>  <InsertionCode>


>  <Model>
1

>  <AltIds>


>  <MissingHeavyAtoms>
0

>  <ObservedFormula>
C23 N6 O3 S Cl3

>  <Name>
3-CHLORO-4-(2-METHYLAMINO-IMIDAZOL-1-YLMETHYL)-THIOPHENE-2-CARBOXYLIC ACID [4-CHLORO-2-(5-CHLORO-PYRIDIN-2-YLCARBAMOYL)-6-METHOXY-PHENYL]-AMIDE

>  <SystematicName>
3-chloro-N-[4-chloro-2-[(5-chloropyridin-2-yl)carbamoyl]-6-methoxy-phenyl]-4-[(2-methylaminoimidazol-1-yl)methyl]thiophene-2-carboxamide

>  <Synonyms>


>  <Type>
NON-POLYMER

>  <Formula>
C23 H19 Cl3 N6 O3 S

>  <MolecularWeight>
565.859

>  <ModifiedDate>
2011-06-04

>  <Parent>


>  <OneLetterCode>


>  <SubcomponentList>


>  <AmbiguousFlag>


>  <InChI>
InChI=1S/C23H19Cl3N6O3S/c1-27-23-28-5-6-32(23)10-12-11-36-20(18(12)26)22(34)31-19-15(7-14(25)8-16(19)35-2)21(33)30-17-4-3-13(24)9-29-17/h3-9,11H,10H2,1-2H3,(H,27,28)(H,31,34)(H,29,30,33)

>  <InChIKey>
LLHSZBPXQIOQJJ-UHFFFAOYSA-N

>  <SMILES>
CNc1nccn1Cc2csc(c2Cl)C(=O)Nc3c(cc(cc3OC)Cl)C(=O)Nc4ccc(cn4)Cl

$$$$
