
 OpenBabel09181910133D

 55 57  0  0  0  0  0  0  0  0999 V2000
    8.8970    1.6084   16.5695 C   0  0  0  0  0  0  0  0  0  0  0  0
    9.4209    2.3048   17.7972 N   0  3  0  0  0  0  0  0  0  0  0  0
    8.8214    3.6015   18.2506 C   0  0  0  0  0  0  0  0  0  0  0  0
    7.8432    3.4888   19.3851 C   0  0  0  0  0  0  0  0  0  0  0  0
    7.3025    4.6293   20.1002 C   0  0  0  0  0  0  0  0  0  0  0  0
    7.7128    6.2329   19.6315 Cl  0  0  0  0  0  0  0  0  0  0  0  0
    7.3305    2.3177   19.9123 C   0  0  0  0  0  0  0  0  0  0  0  0
    6.2804    2.5724   21.2241 S   0  0  0  0  0  0  0  0  0  0  0  0
    6.4503    4.2810   21.1347 C   0  0  0  0  0  0  0  0  0  0  0  0
    5.6882    5.0734   22.1011 C   0  0  0  0  0  0  0  0  0  0  0  0
    4.7905    4.5850   22.7808 O   0  0  0  0  0  0  0  0  0  0  0  0
    6.1204    6.3810   22.2726 N   0  0  0  0  0  0  0  0  0  0  0  0
    5.4872    7.2852   23.1645 C   0  0  0  0  0  0  0  0  0  0  0  0
    4.0958    7.4828   23.1524 C   0  0  0  0  0  0  0  0  0  0  0  0
    3.2899    6.8736   22.2237 O   0  0  0  0  0  0  0  0  0  0  0  0
    3.1988    7.6710   21.0428 C   0  0  0  0  0  0  0  0  0  0  0  0
    3.4805    8.3226   24.0822 C   0  0  0  0  0  0  0  0  0  0  0  0
    4.2617    9.0272   24.9923 C   0  0  0  0  0  0  0  0  0  0  0  0
    3.5097   10.0777   26.1272 Cl  0  0  0  0  0  0  0  0  0  0  0  0
    5.6500    8.9007   24.9864 C   0  0  0  0  0  0  0  0  0  0  0  0
    6.2637    8.0274   24.0754 C   0  0  0  0  0  0  0  0  0  0  0  0
    7.7405    7.8511   24.1031 C   0  0  0  0  0  0  0  0  0  0  0  0
    8.3167    7.7201   23.0271 O   0  0  0  0  0  0  0  0  0  0  0  0
    8.2839    7.7227   25.3640 N   0  0  0  0  0  0  0  0  0  0  0  0
    9.6577    7.6743   25.6325 C   0  0  0  0  0  0  0  0  0  0  0  0
   10.0552    7.2216   26.8891 C   0  0  0  0  0  0  0  0  0  0  0  0
   11.4166    7.1779   27.1978 C   0  0  0  0  0  0  0  0  0  0  0  0
   12.3371    7.6187   26.2578 C   0  0  0  0  0  0  0  0  0  0  0  0
   14.0177    7.5933   26.5940 Cl  0  0  0  0  0  0  0  0  0  0  0  0
   11.8578    8.0739   25.0424 C   0  0  0  0  0  0  0  0  0  0  0  0
   10.5434    8.0954   24.7106 N   0  0  0  0  0  0  0  0  0  0  0  0
    7.3981    1.7745   16.3563 C   0  0  0  0  0  0  0  0  0  0  0  0
    9.2548    0.1293   16.7051 C   0  0  0  0  0  0  0  0  0  0  0  0
    9.4381    2.0469   15.7235 H   0  0  0  0  0  0  0  0  0  0  0  0
   10.4164    2.4939   17.6174 H   0  0  0  0  0  0  0  0  0  0  0  0
    9.4415    1.6628   18.5986 H   0  0  0  0  0  0  0  0  0  0  0  0
    8.3948    4.1105   17.3815 H   0  0  0  0  0  0  0  0  0  0  0  0
    9.6764    4.1988   18.5893 H   0  0  0  0  0  0  0  0  0  0  0  0
    7.5017    1.2935   19.6113 H   0  0  0  0  0  0  0  0  0  0  0  0
    7.1101    6.5630   22.0955 H   0  0  0  0  0  0  0  0  0  0  0  0
    2.5806    7.1298   20.3204 H   0  0  0  0  0  0  0  0  0  0  0  0
    4.1830    7.8332   20.5894 H   0  0  0  0  0  0  0  0  0  0  0  0
    2.7147    8.6307   21.2533 H   0  0  0  0  0  0  0  0  0  0  0  0
    2.3991    8.4328   24.0760 H   0  0  0  0  0  0  0  0  0  0  0  0
    6.2444    9.4888   25.6815 H   0  0  0  0  0  0  0  0  0  0  0  0
    7.6616    7.5565   26.1426 H   0  0  0  0  0  0  0  0  0  0  0  0
    9.3322    6.8809   27.6230 H   0  0  0  0  0  0  0  0  0  0  0  0
   11.7455    6.8051   28.1639 H   0  0  0  0  0  0  0  0  0  0  0  0
   12.5283    8.4483   24.2744 H   0  0  0  0  0  0  0  0  0  0  0  0
    6.8140    1.3540   17.1793 H   0  0  0  0  0  0  0  0  0  0  0  0
    7.0950    1.2524   15.4407 H   0  0  0  0  0  0  0  0  0  0  0  0
    7.1122    2.8213   16.2222 H   0  0  0  0  0  0  0  0  0  0  0  0
    8.7182   -0.3311   17.5436 H   0  0  0  0  0  0  0  0  0  0  0  0
   10.3274   -0.0068   16.8788 H   0  0  0  0  0  0  0  0  0  0  0  0
    8.9878   -0.4213   15.7972 H   0  0  0  0  0  0  0  0  0  0  0  0
  1  2  1  0  0  0  0
  1 32  1  0  0  0  0
  1 33  1  0  0  0  0
  1 34  1  0  0  0  0
  2  3  1  0  0  0  0
  2 35  1  0  0  0  0
  2 36  1  0  0  0  0
  3  4  1  0  0  0  0
  3 37  1  0  0  0  0
  3 38  1  0  0  0  0
  4  7  2  0  0  0  0
  4  5  1  0  0  0  0
  5  6  1  0  0  0  0
  5  9  2  0  0  0  0
  7  8  1  0  0  0  0
  7 39  1  0  0  0  0
  8  9  1  0  0  0  0
  9 10  1  0  0  0  0
 10 12  1  0  0  0  0
 10 11  2  0  0  0  0
 12 13  1  0  0  0  0
 12 40  1  0  0  0  0
 13 14  2  0  0  0  0
 13 21  1  0  0  0  0
 14 15  1  0  0  0  0
 14 17  1  0  0  0  0
 15 16  1  0  0  0  0
 16 41  1  0  0  0  0
 16 42  1  0  0  0  0
 16 43  1  0  0  0  0
 17 18  2  0  0  0  0
 17 44  1  0  0  0  0
 18 20  1  0  0  0  0
 18 19  1  0  0  0  0
 20 21  2  0  0  0  0
 20 45  1  0  0  0  0
 21 22  1  0  0  0  0
 22 23  2  0  0  0  0
 22 24  1  0  0  0  0
 24 25  1  0  0  0  0
 24 46  1  0  0  0  0
 25 31  1  0  0  0  0
 25 26  2  0  0  0  0
 26 27  1  0  0  0  0
 26 47  1  0  0  0  0
 27 28  2  0  0  0  0
 27 48  1  0  0  0  0
 28 30  1  0  0  0  0
 28 29  1  0  0  0  0
 30 31  2  0  0  0  0
 30 49  1  0  0  0  0
 32 50  1  0  0  0  0
 32 51  1  0  0  0  0
 32 52  1  0  0  0  0
 33 53  1  0  0  0  0
 33 54  1  0  0  0  0
 33 55  1  0  0  0  0
M  CHG  1   2   1
M  END
>  <MOL Chiral Flag>
0

>  <InstanceId>
2P3T_993_B_500

>  <ChemCompId>
993

>  <PdbId>
2P3T

>  <ChainId>
B

>  <ResidueNumber>
500

>  <InsertionCode>


>  <Model>
1

>  <AltIds>


>  <MissingHeavyAtoms>
0

>  <ObservedFormula>
C23 N6 O3 S Cl3

>  <Name>
3-CHLORO-4-(2-METHYLAMINO-IMIDAZOL-1-YLMETHYL)-THIOPHENE-2-CARBOXYLIC ACID [4-CHLORO-2-(5-CHLORO-PYRIDIN-2-YLCARBAMOYL)-6-METHOXY-PHENYL]-AMIDE

>  <SystematicName>
3-chloro-N-[4-chloro-2-[(5-chloropyridin-2-yl)carbamoyl]-6-methoxy-phenyl]-4-[(2-methylaminoimidazol-1-yl)methyl]thiophene-2-carboxamide

>  <Synonyms>


>  <Type>
NON-POLYMER

>  <Formula>
C23 H19 Cl3 N6 O3 S

>  <MolecularWeight>
565.859

>  <ModifiedDate>
2011-06-04

>  <Parent>


>  <OneLetterCode>


>  <SubcomponentList>


>  <AmbiguousFlag>


>  <InChI>
InChI=1S/C23H19Cl3N6O3S/c1-27-23-28-5-6-32(23)10-12-11-36-20(18(12)26)22(34)31-19-15(7-14(25)8-16(19)35-2)21(33)30-17-4-3-13(24)9-29-17/h3-9,11H,10H2,1-2H3,(H,27,28)(H,31,34)(H,29,30,33)

>  <InChIKey>
LLHSZBPXQIOQJJ-UHFFFAOYSA-N

>  <SMILES>
CNc1nccn1Cc2csc(c2Cl)C(=O)Nc3c(cc(cc3OC)Cl)C(=O)Nc4ccc(cn4)Cl

$$$$
