lig
 OpenBabel09191911113D
Structure written by MMmdl.
 70 72  0  0  1  0  0  0  0  0999 V2000
   25.6080   31.0080   37.6680 P   0  0  2  0  0  0  0  0  0  0  0  0
   24.6180   31.1870   38.7480 O   0  0  0  0  0  0  0  0  0  0  0  0
   26.5380   32.1470   37.4990 O   0  5  0  0  0  0  0  0  0  0  0  0
   24.8500   30.8410   36.3150 O   0  0  0  0  0  0  0  0  0  0  0  0
   23.5880   30.1510   36.2680 C   0  0  0  0  0  0  0  0  0  0  0  0
   23.0970   30.1000   34.8230 C   0  0  1  0  0  0  0  0  0  0  0  0
   22.4900   31.3680   34.4470 O   0  0  0  0  0  0  0  0  0  0  0  0
   22.7990   31.6320   33.0810 C   0  0  1  0  0  0  0  0  0  0  0  0
   23.5250   32.9180   32.9100 N   0  0  0  0  0  0  0  0  0  0  0  0
   24.2290   33.4730   33.9590 C   0  0  0  0  0  0  0  0  0  0  0  0
   24.8700   34.6440   33.8210 C   0  0  0  0  0  0  0  0  0  0  0  0
   23.5820   33.5050   31.6480 C   0  0  0  0  0  0  0  0  0  0  0  0
   23.0370   32.9340   30.6920 O   0  0  0  0  0  0  0  0  0  0  0  0
   24.2210   34.6860   31.4980 N   0  0  0  0  0  0  0  0  0  0  0  0
   24.8190   35.2750   32.5400 C   0  0  0  0  0  0  0  0  0  0  0  0
   25.3130   36.5000   32.3640 N   0  0  0  0  0  0  0  0  0  0  0  0
   23.5880   30.4500   32.5230 C   0  0  2  0  0  0  0  0  0  0  0  0
   22.7450   29.5130   31.8830 O   0  0  0  0  0  0  0  0  0  0  0  0
   24.2050   29.8780   33.7870 C   0  0  2  0  0  0  0  0  0  0  0  0
   24.5230   28.4840   33.7120 O   0  0  0  0  0  0  0  0  0  0  0  0
   26.0430   27.5220   37.0780 C   0  0  0  0  0  0  0  0  0  0  0  0
   25.5740   27.3700   35.9090 O   0  0  0  0  0  0  0  0  0  0  0  0
   25.7200   26.8740   38.1090 O   0  5  0  0  0  0  0  0  0  0  0  0
   27.1080   28.6930   37.2370 C   0  0  1  0  0  0  0  0  0  0  0  0
   26.4070   29.7200   37.9330 O   0  0  0  0  0  0  0  0  0  0  0  0
   28.9740   29.7700   38.4510 C   0  0  2  0  0  0  0  0  0  0  0  0
   28.0730   28.6320   38.3250 O   0  0  0  0  0  0  0  0  0  0  0  0
   27.6970   29.2220   35.9090 C   0  0  0  0  0  0  0  0  0  0  0  0
   28.7370   30.2870   36.0140 C   0  0  2  0  0  0  0  0  0  0  0  0
   29.4270   30.3670   34.7790 O   0  0  0  0  0  0  0  0  0  0  0  0
   29.7120   30.1210   37.1590 C   0  0  1  0  0  0  0  0  0  0  0  0
   30.4660   31.3570   37.2880 N   0  0  0  0  0  0  0  0  0  0  0  0
   31.7440   31.4740   37.6410 C   0  0  0  0  0  0  0  0  0  0  0  0
   32.4410   30.5210   37.9590 O   0  0  0  0  0  0  0  0  0  0  0  0
   32.2980   32.8730   37.6480 C   0  0  0  0  0  0  0  0  0  0  0  0
   29.8520   29.5550   39.6940 C   0  0  2  0  0  0  0  0  0  0  0  0
   31.0080   28.7480   39.4200 O   0  0  0  0  0  0  0  0  0  0  0  0
   29.0470   28.8860   40.8020 C   0  0  2  0  0  0  0  0  0  0  0  0
   27.7710   29.5220   40.9930 O   0  0  0  0  0  0  0  0  0  0  0  0
   29.7490   28.7380   42.1400 C   0  0  0  0  0  0  0  0  0  0  0  0
   29.1820   27.6430   42.8840 O   0  0  0  0  0  0  0  0  0  0  0  0
   22.8601   30.6834   36.8802 H   0  0  0  0  0  0  0  0  0  0  0  0
   23.7150   29.1359   36.6444 H   0  0  0  0  0  0  0  0  0  0  0  0
   22.3551   29.3073   34.7266 H   0  0  0  0  0  0  0  0  0  0  0  0
   21.8605   31.6998   32.5308 H   0  0  0  0  0  0  0  0  0  0  0  0
   24.2706   32.9641   34.9107 H   0  0  0  0  0  0  0  0  0  0  0  0
   25.3972   35.0732   34.6602 H   0  0  0  0  0  0  0  0  0  0  0  0
   25.2710   36.9355   31.4537 H   0  0  0  0  0  0  0  0  0  0  0  0
   25.7294   36.9930   33.1409 H   0  0  0  0  0  0  0  0  0  0  0  0
   24.3643   30.7957   31.8404 H   0  0  0  0  0  0  0  0  0  0  0  0
   23.2726   28.7856   31.5453 H   0  0  0  0  0  0  0  0  0  0  0  0
   25.0921   30.4491   34.0609 H   0  0  0  0  0  0  0  0  0  0  0  0
   25.2169   28.3481   33.0627 H   0  0  0  0  0  0  0  0  0  0  0  0
   28.3415   30.6285   38.6767 H   0  0  0  0  0  0  0  0  0  0  0  0
   26.8858   29.5743   35.2718 H   0  0  0  0  0  0  0  0  0  0  0  0
   28.0965   28.3857   35.3354 H   0  0  0  0  0  0  0  0  0  0  0  0
   28.2196   31.2351   36.1608 H   0  0  0  0  0  0  0  0  0  0  0  0
   30.1004   31.0492   34.8317 H   0  0  0  0  0  0  0  0  0  0  0  0
   30.4020   29.3124   36.9181 H   0  0  0  0  0  0  0  0  0  0  0  0
   29.9224   32.1820   37.0784 H   0  0  0  0  0  0  0  0  0  0  0  0
   33.3450   32.8482   37.9502 H   0  0  0  0  0  0  0  0  0  0  0  0
   32.2189   33.3007   36.6485 H   0  0  0  0  0  0  0  0  0  0  0  0
   31.7320   33.4850   38.3503 H   0  0  0  0  0  0  0  0  0  0  0  0
   30.1879   30.5284   40.0514 H   0  0  0  0  0  0  0  0  0  0  0  0
   31.5228   28.6424   40.2234 H   0  0  0  0  0  0  0  0  0  0  0  0
   28.8345   27.8745   40.4559 H   0  0  0  0  0  0  0  0  0  0  0  0
   27.2927   29.0762   41.6959 H   0  0  0  0  0  0  0  0  0  0  0  0
   29.6399   29.6600   42.7111 H   0  0  0  0  0  0  0  0  0  0  0  0
   30.8104   28.5534   41.9746 H   0  0  0  0  0  0  0  0  0  0  0  0
   29.6340   27.5602   43.7269 H   0  0  0  0  0  0  0  0  0  0  0  0
  1  2  2  1  0  0  0
  1  3  1  0  0  0  0
  1  4  1  0  0  0  0
  1 25  1  0  0  0  0
  4  5  1  0  0  0  0
  5  6  1  0  0  0  0
  5 42  1  0  0  0  0
  5 43  1  0  0  0  0
  6  7  1  0  0  0  0
  6 19  1  0  0  0  0
  6 44  1  6  0  0  0
  7  8  1  0  0  0  0
  8  9  1  0  0  0  0
  8 17  1  0  0  0  0
  8 45  1  6  0  0  0
  9 10  1  0  0  0  0
  9 12  1  0  0  0  0
 10 11  2  0  0  0  0
 10 46  1  0  0  0  0
 11 15  1  0  0  0  0
 11 47  1  0  0  0  0
 12 13  2  0  0  0  0
 12 14  1  0  0  0  0
 14 15  2  0  0  0  0
 15 16  1  0  0  0  0
 16 48  1  0  0  0  0
 16 49  1  0  0  0  0
 17 18  1  0  0  0  0
 17 19  1  0  0  0  0
 17 50  1  6  0  0  0
 18 51  1  0  0  0  0
 19 20  1  0  0  0  0
 19 52  1  1  0  0  0
 20 53  1  0  0  0  0
 21 22  2  0  0  0  0
 21 23  1  0  0  0  0
 24 21  1  6  0  0  0
 24 25  1  0  0  0  0
 24 27  1  0  0  0  0
 24 28  1  0  0  0  0
 26 27  1  0  0  0  0
 26 31  1  0  0  0  0
 26 36  1  0  0  0  0
 26 54  1  1  0  0  0
 28 29  1  0  0  0  0
 28 55  1  0  0  0  0
 28 56  1  0  0  0  0
 29 30  1  0  0  0  0
 29 31  1  0  0  0  0
 29 57  1  1  0  0  0
 30 58  1  0  0  0  0
 31 32  1  0  0  0  0
 31 59  1  6  0  0  0
 32 33  1  0  0  0  0
 32 60  1  0  0  0  0
 33 34  2  0  0  0  0
 33 35  1  0  0  0  0
 35 61  1  0  0  0  0
 35 62  1  0  0  0  0
 35 63  1  0  0  0  0
 36 37  1  0  0  0  0
 36 38  1  0  0  0  0
 36 64  1  1  0  0  0
 37 65  1  0  0  0  0
 38 39  1  0  0  0  0
 38 40  1  0  0  0  0
 38 66  1  6  0  0  0
 39 67  1  0  0  0  0
 40 41  1  0  0  0  0
 40 68  1  0  0  0  0
 40 69  1  0  0  0  0
 41 70  1  0  0  0  0
M  CHG  2   3  -1  23  -1
M  END
>  <s_m_entry_id>
5

>  <s_m_entry_name>
lig.1

>  <s_pdb_PDB_format_version>
3.0

>  <s_m_Source_Path>
/mnt/scratch_raid/tsenapathi/PST3

>  <s_m_Source_File>
lig.sdf

>  <i_m_Source_File_Index>
1

>  <s_ppw_entry_id_backup>
1

>  <b_ppw_prepared>
1

>  <s_ppw_prepared_with_version>
2019-1

>  <b_ppw_assigned_bond_orders>
1

>  <b_ppw_added_hydrogens>
1

>  <b_ppw_treated_metals>
1

>  <b_ppw_created_disulfur>
1

>  <b_ppw_deleted_far_waters>
1

>  <s_ppw_het_states>
eJztXcGS27gR/ZUpXeOZoBtAA9i97SnXVI6pPbg2e4pj5+AcUq759yW6STySIiXZK9mUhj64Wk0A3Xh4egQIUPPlQIefnv7Z/YvJvXtyv7576ixuVmhWalYZrNxq5FYj+2bFZkm1qmlRNAC1UBpl9LFWpBZe41HLYf6x5kAtLw3PLTnNi1uGepVacpoX17zoxcXu0pdDV6yDo/voKb2+e3ruLxz+8fn959+f/vv7x/cfPv9fC8Snf//2/sNf//Ppw89Pf3v+5dPHfz399ul/Hz//9OR+fvp79/9B+/vnYaX7hdW9FB+7Al8qlMOHOZadP5zB8i90OZh0EszvxNEalBexXQGTtgnmJr7wIypeBuadf+HvmKP0wt4XxTWlg9KRMhmuduUYWPYPBuw6ztsDtmv6wP0EgJKnHpDO9DAjzNzM4GCiWkC1EGAKzNSQtngWihDVAk4ctT4hGQtOSGnJQc2h1zQdRr6WKiNrK0FI2HKdqkUtOpEL113hMv7n5SvVgyYkv9Yg0MMNwvj+18EuIY1hT195L6TpvfBC2Okc7D+E+9QwPBqHE7DT/cC+TcmhueMi2B9Xch6P+7jr1uYnt133LbfdB8L9xEBsGPeu7YPvpzvsygBeZ0aYwzySyTmYDNPDjDAFZoZZmklojNAYBZgITKjGqMaoxsiBkQNjGmu9s44R+mjdGzs0W0LXrasEAJYcHg5Wh/SDbdcMGAZGVoIAjyHDYwe5VoI0CiEsaRQKMwdHOIKWKHCkRQePohR1+JYHa1hmOHgoQcDaYO556sV4WrupKh2lduxQ69rnULjjLb+IF1qirZdV2oaJXFyLr8Mo7HzdIF/H9Dwi8BX4yhSi8bXnpy8lv9YrKce4KKu0yk8/ncxtUlBH2O0EvRJB+esJSgD8DEFzoomghhzICEq8fN8v35ugu4K+ZYKWmIyglJSglEhe69o4uTBZly3e7d0qWXlX028kK8bzmL3rZCVg9LBk9d77Xk2dkpU5eiWriCSHf8tT0/UV1T2QdVfW65P1lnPTO1xLvQG+3q+43nrtH4IrE3H1nid8FZbK1464sSzyNaw/KPc7X98aX2+trztft8jX+54P3HLyGkKcPgqQwKR87Vdenqmna1hcbIX1HbCdrm9SXm9J18hME3kNFKZ01Set7iWktEjXyGeWW/0GVhg2sFJs451igtkYk4RhBpioJqgmjaqpHbTqTAKPNJ6FIkS1gBNHcnBUZDU4IaUlR4QjqCMPg6HXLFVG1laCkLDlOt08r0WvfLzvWqjTw6F+9QOqF0JN56D+IQSPwO0I+3WoadtQb1NL4gmavwkteTyC4wRIbf7aJ4nvGvdTA7Fd3Lu2D7GfuHiiAUePqa7HVNdjftuZASaqMapxbqZ3MAG/xfPYwTDTYwY4OLyDo1QHh+aoKS05IhxBHQP8ds1SZWRtJQgJW65NbILOImtZgz+STRtLiIvon1AbnrD+rmGPJ8Zhh/2WsPPXw06Xwx6lh50H2LmHPfhzm6lu/XH/Aw3BqTF5e0NAWxmCa4pPimE4YF84yLl9WZcv3Ze9EHU6h/pDas8tUO9aPsgwzfHtlbTObIj7TDADTIGJahnVioPJMD3A13gWihDVAk4cpY25XrPghJSWHAkO0TaGx2l2zVJlZG0lCAlbrsPyNdbHdp3qdGVNdVyJr7aY1UsLi9lLV1XXwp0eEPdUEh4b2IdjpPP6IaXZY4MLoaZzUP8QiifgdoT9OtS0bai3qSY3hZpeSLLv1SSommTbGnoeLh2rOaXvrCabUXHePO71JpqGm6hwg1Qw/xDMP6S9OtWZESaq+VG1NhLS3qLqTAb8Gs9CEaJawImjvf9n1yw4IaUlh8AR1dG0W69ZqoysrQQhYcu1V5jONvilf0lKFH334vXN82O1kXMvZjbSXwl1ekDUI+srFKbr9uEY6RN7eXNdv2eCC3A7wn4daroU6syee4J7JXh0KRjwdmnhhnoO+F5f8qAvxTWYStvO78wIs6Fb2sZ9Z6IaoVrbw+9MgZlgojFGY1j6Fqy8ClZeBaNVQIziUc0jsHHEBlt7Zx0j9NG6N3GQwBHV4eDIy47GD71mnWegY8AwMLISBHgMGZ440FHSKIywrFGwYO0dHo3qQrFgGahomoMnDkTRhWLxoyga1nOr4t3gIGBtMA/PzFN/H+y6qVtEybaI+CUxjY9ZL1C2vvJy5tQqtGIn66VkpTZ8R+w9QVYCRo9LVirByOqynUuRNLwC6BZ/SYDXNdXfLUEd8BqQ2gl6S4KOFGHK2J2gWyXo2v3/MW/3lxN0W7f70aBsgaz77X5TZPWpnu2tZPV2LDWSkrUe93cLa9euxjpBH0JNfxRB35aaXjwf9TnliZrmUAE41MbsM5eg6iq6EbhA2PVfAJi+9rcL6i6of5qvIYdifO35WViCCmqkuPza1C6ou6B+vzt+9PbeVBPUkuvuD2YAIsmroAZZfnEqru8TfJOg7nx9g4J6OV/1Z0RH6/0U8piu3erKlv/BucU9RVnfRPfjZ/6lf+YfqO3jBmr7uJ3pYQrMDBPVCqq1fdygDy4GEzyyeBaKENUCThwlwOG1RIZDlh0FjqxtDFDbNUuVkbWVICRsuWLLRcWjlrUt3cSi6FOSPDoNmL9y92V6HPBaQ0APOARCOsF4rbbPS1OKWubSn9i9a7IX4HgE/TrSdCnSJeZsZM+iZE/k7dS3C8RufCIwLB5JWz/9Sjeh+2YUh+9rEKr6kxvkP2IE8HcBgv72/jP1doA7wmwDE9s5nhAxMLG9Rt6ZaKEIzFELbWilvVzemQSTYUaYCSZaIFRr86nODDBj65y0uVVnorU2twrCyIfRMKM1RguMah7VPHL3yMejBY9qAdUCqgWUDYgWCjiuwxjwFz+ao3F8cISpQ9rxZLsW8AcdzLSRHhyV47Edg+odCj6BC0aDwaFhi586xCFKvWYcmToQVr8nSh0Gi4wfQwlLrKCEJdYyVdOqMNhlxBpKRHWkuaPAURSxFlb5ZdTiiSPOSwgcMkW9d7CbO0ZR8ryEOfLM4eFg7Vw7JW6mcXXqGFWxNhDFK2IeAFXTOMwTB6J4bSO4uQNtBK0SwtyBxIJ2PyjqKorSn4+uY2hHu6IrnSjmFx/y4tRL1o9HF5XBZx5uRnP9a6IH9dr17670byp3fi6Iu/7t+rfr36r+7fO/e9e/Lc7/JnJ3JIhHcnckiJfp30jujgRx179d//b531vQvy3O/3b92/Vva/r3a30OOPzB6yARX+6Ib2mE2ETIQ8QXVvCFFXxhBS0IvruCagnVEgInVEsInFAtoxomqwKBFgi0ZOSLJ8cCgRYItBRUa79zGZJJsQmM4mPQ9OPUO9LcAUbFOC+hjkRzB74uUfkibu5Ao6KsFDBKlEACVvYOUEy0jeTmDuSRtNGMEkn7ktDbZJkij2xVwtyBvmSel1AHlG9wACAVXMlHDkiQPlQX6OvgQKOqnlKQR23fBlO/UPWPBtqWUqrG/NtTL6/voab2FP31D7tWPFM=

>  <chiral flag>
1

>  <version>
0

$$$$

