
 OpenBabel08131916473D

 35 37  0  0  0  0  0  0  0  0999 V2000
   28.6757   13.0897   -1.6772 C   0  0  0  0  0  0  0  0  0  0  0  0
   27.7826   12.8338   -0.6398 C   0  0  0  0  0  0  0  0  0  0  0  0
   26.4999   12.4463   -1.0727 C   0  0  0  0  0  0  0  0  0  0  0  0
   26.2407   12.3683   -2.3962 N   0  0  0  0  0  0  0  0  0  0  0  0
   28.4451   13.0295   -2.9948 N   0  0  0  0  0  0  0  0  0  0  0  0
   28.1401   12.8567    2.0430 C   0  0  0  0  0  0  0  0  0  0  0  0
   28.5210   13.0268    0.5955 C   0  0  0  0  0  0  0  0  0  0  0  0
   25.4161   12.1310   -0.2585 N   0  0  0  0  0  0  0  0  0  0  0  0
   27.1949   12.6745   -3.2802 C   0  0  0  0  0  0  0  0  0  0  0  0
   26.8584   12.5669   -4.6172 N   0  0  0  0  0  0  0  0  0  0  0  0
   29.8897   13.4046   -1.1485 N   0  0  0  0  0  0  0  0  0  0  0  0
   29.8158   13.3541    0.2081 C   0  0  0  0  0  0  0  0  0  0  0  0
   31.2710   13.5787    1.1235 S   0  0  0  0  0  0  0  0  0  0  0  0
   31.5019   15.3495    1.0752 C   0  0  0  0  0  0  0  0  0  0  0  0
   30.4926   16.2764    0.7946 C   0  0  0  0  0  0  0  0  0  0  0  0
   30.7670   17.6496    0.7828 C   0  0  0  0  0  0  0  0  0  0  0  0
   32.0562   18.1252    1.0603 C   0  0  0  0  0  0  0  0  0  0  0  0
   33.0588   17.2000    1.3769 C   0  0  0  0  0  0  0  0  0  0  0  0
   32.7830   15.8292    1.3802 C   0  0  0  0  0  0  0  0  0  0  0  0
   24.6109   12.0014   -0.8655 H   0  0  0  0  0  0  0  0  0  0  0  0
   25.2516   12.8453    0.4359 H   0  0  0  0  0  0  0  0  0  0  0  0
   27.6903   12.3770   -5.1578 H   0  0  0  0  0  0  0  0  0  0  0  0
   26.0913   11.9156   -4.7116 H   0  0  0  0  0  0  0  0  0  0  0  0
   30.7161   13.6016   -1.6917 H   0  0  0  0  0  0  0  0  0  0  0  0
   29.4752   15.9560    0.5865 H   0  0  0  0  0  0  0  0  0  0  0  0
   29.9632   18.3489    0.5543 H   0  0  0  0  0  0  0  0  0  0  0  0
   34.0642   17.5406    1.6214 H   0  0  0  0  0  0  0  0  0  0  0  0
   33.5847   15.1358    1.6301 H   0  0  0  0  0  0  0  0  0  0  0  0
   26.7038   13.0988    2.4474 C   0  0  0  0  0  0  0  0  0  0  0  0
   26.2811   13.9827    1.9611 H   0  0  0  0  0  0  0  0  0  0  0  0
   26.6436   13.2538    3.5307 H   0  0  0  0  0  0  0  0  0  0  0  0
   26.0878   12.2223    2.2326 H   0  0  0  0  0  0  0  0  0  0  0  0
   28.7372   13.5675    2.6305 H   0  0  0  0  0  0  0  0  0  0  0  0
   28.4465   11.8565    2.3721 H   0  0  0  0  0  0  0  0  0  0  0  0
   32.2622   19.1361    1.0318 H   0  0  0  0  0  0  0  0  0  0  0  0
  1 11  1  0  0  0  0
  1  2  2  0  0  0  0
  2  7  1  0  0  0  0
  3  2  1  0  0  0  0
  3  8  1  0  0  0  0
  4  3  2  0  0  0  0
  5  1  1  0  0  0  0
  6 33  1  0  0  0  0
  6 34  1  0  0  0  0
  7  6  1  0  0  0  0
  8 20  1  0  0  0  0
  8 21  1  0  0  0  0
  9  5  2  0  0  0  0
  9  4  1  0  0  0  0
 10  9  1  0  0  0  0
 10 22  1  0  0  0  0
 10 23  1  0  0  0  0
 11 12  1  0  0  0  0
 11 24  1  0  0  0  0
 12  7  2  0  0  0  0
 12 13  1  0  0  0  0
 14 13  1  0  0  0  0
 14 19  2  0  0  0  0
 15 14  1  0  0  0  0
 15 25  1  0  0  0  0
 16 15  2  0  0  0  0
 16 17  1  0  0  0  0
 16 26  1  0  0  0  0
 17 18  2  0  0  0  0
 17 35  1  0  0  0  0
 18 19  1  0  0  0  0
 18 27  1  0  0  0  0
 19 28  1  0  0  0  0
 29  6  1  0  0  0  0
 29 30  1  0  0  0  0
 29 31  1  0  0  0  0
 29 32  1  0  0  0  0
M  END
>  <MOL Chiral Flag>
0

>  <InstanceId>
5HPB_63W_A_202

>  <ChemCompId>
63W

>  <PdbId>
5HPB

>  <ChainId>
A

>  <ResidueNumber>
202

>  <InsertionCode>


>  <Model>
1

>  <AltIds>


>  <MissingHeavyAtoms>
0

>  <ObservedFormula>
C14 N4 S2 F3

>  <Name>
5-methyl-6-{[4-(trifluoromethyl)phenyl]sulfanyl}thieno[2,3-d]pyrimidine-2,4-diamine

>  <SystematicName>
5-methyl-6-[4-(trifluoromethyl)phenyl]sulfanyl-thieno[2,3-d]pyrimidine-2,4-diamine

>  <Synonyms>


>  <Type>
NON-POLYMER

>  <Formula>
C14 H11 F3 N4 S2

>  <MolecularWeight>
356.389

>  <ModifiedDate>
2017-01-20

>  <Parent>


>  <OneLetterCode>


>  <SubcomponentList>


>  <AmbiguousFlag>
N

>  <InChI>
InChI=1S/C14H11F3N4S2/c1-6-9-10(18)20-13(19)21-11(9)23-12(6)22-8-4-2-7(3-5-8)14(15,16)17/h2-5H,1H3,(H4,18,19,20,21)

>  <InChIKey>
VWQMUQCLRMRITR-UHFFFAOYSA-N

>  <SMILES>
Cc1c2c(nc(nc2sc1Sc3ccc(cc3)C(F)(F)F)N)N

$$$$
