
 OpenBabel08201910373D

 39 41  0  0  0  0  0  0  0  0999 V2000
   28.7456   13.1865   -1.5028 C   0  0  0  0  0  0  0  0  0  0  0  0
   27.8071   12.7001   -0.6062 C   0  0  0  0  0  0  0  0  0  0  0  0
   26.6212   12.2153   -1.1777 C   0  0  0  0  0  0  0  0  0  0  0  0
   26.4797   12.2531   -2.5184 N   0  0  0  0  0  0  0  0  0  0  0  0
   28.6374   13.2376   -2.8366 N   0  0  0  0  0  0  0  0  0  0  0  0
   27.7585   12.4030    2.0042 C   0  0  0  0  0  0  0  0  0  0  0  0
   28.3762   12.8281    0.7087 C   0  0  0  0  0  0  0  0  0  0  0  0
   25.5528   11.6964   -0.4554 N   0  0  0  0  0  0  0  0  0  0  0  0
   27.4675   12.7591   -3.2708 C   0  0  0  0  0  0  0  0  0  0  0  0
   27.2709   12.7318   -4.6403 N   0  0  0  0  0  0  0  0  0  0  0  0
   29.8367   13.6075   -0.7982 N   0  0  0  0  0  0  0  0  0  0  0  0
   29.6258   13.4015    0.5365 C   0  0  0  0  0  0  0  0  0  0  0  0
   30.8804   13.7595    1.6811 S   0  0  0  0  0  0  0  0  0  0  0  0
   31.3239   15.4259    1.2280 C   0  0  0  0  0  0  0  0  0  0  0  0
   30.3737   16.4446    1.1028 C   0  0  0  0  0  0  0  0  0  0  0  0
   30.7675   17.7558    0.8025 C   0  0  0  0  0  0  0  0  0  0  0  0
   32.1181   18.0627    0.6378 C   0  0  0  0  0  0  0  0  0  0  0  0
   33.0670   17.0467    0.7650 C   0  0  0  0  0  0  0  0  0  0  0  0
   32.6758   15.7383    1.0613 C   0  0  0  0  0  0  0  0  0  0  0  0
   24.7293   11.6593   -1.0467 H   0  0  0  0  0  0  0  0  0  0  0  0
   25.4164   12.1238    0.4489 H   0  0  0  0  0  0  0  0  0  0  0  0
   28.1686   12.6895   -5.1020 H   0  0  0  0  0  0  0  0  0  0  0  0
   26.6106   11.9974   -4.8568 H   0  0  0  0  0  0  0  0  0  0  0  0
   30.6696   13.9955   -1.2144 H   0  0  0  0  0  0  0  0  0  0  0  0
   29.3167   16.2336    1.2497 H   0  0  0  0  0  0  0  0  0  0  0  0
   29.9947   18.5123    0.7145 H   0  0  0  0  0  0  0  0  0  0  0  0
   34.1230   17.2786    0.6457 H   0  0  0  0  0  0  0  0  0  0  0  0
   33.4402   14.9727    1.1739 H   0  0  0  0  0  0  0  0  0  0  0  0
   26.8867   13.4906    2.6140 C   0  0  0  0  0  0  0  0  0  0  0  0
   27.4589   14.4083    2.7867 H   0  0  0  0  0  0  0  0  0  0  0  0
   26.4810   13.1565    3.5742 H   0  0  0  0  0  0  0  0  0  0  0  0
   26.0455   13.7416    1.9598 H   0  0  0  0  0  0  0  0  0  0  0  0
   28.5412   12.1299    2.7218 H   0  0  0  0  0  0  0  0  0  0  0  0
   27.1644   11.4945    1.8553 H   0  0  0  0  0  0  0  0  0  0  0  0
   32.6382   19.2960    0.3608 O   0  0  0  0  0  0  0  0  0  0  0  0
   31.7221   20.3813    0.2903 C   0  0  0  0  0  0  0  0  0  0  0  0
   32.2982   21.2928    0.1032 H   0  0  0  0  0  0  0  0  0  0  0  0
   31.1897   20.5136    1.2381 H   0  0  0  0  0  0  0  0  0  0  0  0
   31.0231   20.2513   -0.5422 H   0  0  0  0  0  0  0  0  0  0  0  0
  1 11  1  0  0  0  0
  1  2  2  0  0  0  0
  2  7  1  0  0  0  0
  3  2  1  0  0  0  0
  3  8  1  0  0  0  0
  4  3  2  0  0  0  0
  5  1  1  0  0  0  0
  6 33  1  0  0  0  0
  6 34  1  0  0  0  0
  7  6  1  0  0  0  0
  8 20  1  0  0  0  0
  8 21  1  0  0  0  0
  9  5  2  0  0  0  0
  9  4  1  0  0  0  0
 10  9  1  0  0  0  0
 10 22  1  0  0  0  0
 10 23  1  0  0  0  0
 11 12  1  0  0  0  0
 11 24  1  0  0  0  0
 12  7  2  0  0  0  0
 12 13  1  0  0  0  0
 14 13  1  0  0  0  0
 14 19  2  0  0  0  0
 15 14  1  0  0  0  0
 15 25  1  0  0  0  0
 16 15  2  0  0  0  0
 16 17  1  0  0  0  0
 16 26  1  0  0  0  0
 17 18  2  0  0  0  0
 17 35  1  0  0  0  0
 18 19  1  0  0  0  0
 18 27  1  0  0  0  0
 19 28  1  0  0  0  0
 29  6  1  0  0  0  0
 29 30  1  0  0  0  0
 29 31  1  0  0  0  0
 29 32  1  0  0  0  0
 35 36  1  0  0  0  0
 36 37  1  0  0  0  0
 36 38  1  0  0  0  0
 36 39  1  0  0  0  0
M  END
>  <MOL Chiral Flag>
0

>  <InstanceId>
5HPB_63W_A_202

>  <ChemCompId>
63W

>  <PdbId>
5HPB

>  <ChainId>
A

>  <ResidueNumber>
202

>  <InsertionCode>


>  <Model>
1

>  <AltIds>


>  <MissingHeavyAtoms>
0

>  <ObservedFormula>
C14 N4 S2 F3

>  <Name>
5-methyl-6-{[4-(trifluoromethyl)phenyl]sulfanyl}thieno[2,3-d]pyrimidine-2,4-diamine

>  <SystematicName>
5-methyl-6-[4-(trifluoromethyl)phenyl]sulfanyl-thieno[2,3-d]pyrimidine-2,4-diamine

>  <Synonyms>


>  <Type>
NON-POLYMER

>  <Formula>
C14 H11 F3 N4 S2

>  <MolecularWeight>
356.389

>  <ModifiedDate>
2017-01-20

>  <Parent>


>  <OneLetterCode>


>  <SubcomponentList>


>  <AmbiguousFlag>
N

>  <InChI>
InChI=1S/C14H11F3N4S2/c1-6-9-10(18)20-13(19)21-11(9)23-12(6)22-8-4-2-7(3-5-8)14(15,16)17/h2-5H,1H3,(H4,18,19,20,21)

>  <InChIKey>
VWQMUQCLRMRITR-UHFFFAOYSA-N

>  <SMILES>
Cc1c2c(nc(nc2sc1Sc3ccc(cc3)C(F)(F)F)N)N

$$$$
