
 OpenBabel09181910143D

 46 48  0  0  0  0  0  0  0  0999 V2000
    9.3557    2.4003   17.6682 N   0  3  0  0  0  0  0  0  0  0  0  0
    8.9451    3.6741   18.3017 C   0  0  0  0  0  0  0  0  0  0  0  0
    8.0009    3.5235   19.4518 C   0  0  0  0  0  0  0  0  0  0  0  0
    7.4020    4.6458   20.1451 C   0  0  0  0  0  0  0  0  0  0  0  0
    7.7427    6.2603   19.6564 Cl  0  0  0  0  0  0  0  0  0  0  0  0
    7.5679    2.3343   20.0085 C   0  0  0  0  0  0  0  0  0  0  0  0
    6.4727    2.5591   21.2927 S   0  0  0  0  0  0  0  0  0  0  0  0
    6.5480    4.2720   21.1679 C   0  0  0  0  0  0  0  0  0  0  0  0
    5.7279    5.0507   22.0971 C   0  0  0  0  0  0  0  0  0  0  0  0
    4.8044    4.5486   22.7305 O   0  0  0  0  0  0  0  0  0  0  0  0
    6.1418    6.3607   22.2865 N   0  0  0  0  0  0  0  0  0  0  0  0
    5.4943    7.2614   23.1703 C   0  0  0  0  0  0  0  0  0  0  0  0
    4.1032    7.4545   23.1505 C   0  0  0  0  0  0  0  0  0  0  0  0
    3.3050    6.8439   22.2167 O   0  0  0  0  0  0  0  0  0  0  0  0
    3.2019    7.6528   21.0442 C   0  0  0  0  0  0  0  0  0  0  0  0
    3.4821    8.2980   24.0740 C   0  0  0  0  0  0  0  0  0  0  0  0
    4.2572    9.0099   24.9841 C   0  0  0  0  0  0  0  0  0  0  0  0
    3.4975   10.0655   26.1091 Cl  0  0  0  0  0  0  0  0  0  0  0  0
    5.6457    8.8882   24.9846 C   0  0  0  0  0  0  0  0  0  0  0  0
    6.2646    8.0124   24.0803 C   0  0  0  0  0  0  0  0  0  0  0  0
    7.7424    7.8444   24.1097 C   0  0  0  0  0  0  0  0  0  0  0  0
    8.3196    7.7150   23.0338 O   0  0  0  0  0  0  0  0  0  0  0  0
    8.2861    7.7188   25.3703 N   0  0  0  0  0  0  0  0  0  0  0  0
    9.6603    7.6708   25.6374 C   0  0  0  0  0  0  0  0  0  0  0  0
   10.0587    7.2260   26.8963 C   0  0  0  0  0  0  0  0  0  0  0  0
   11.4204    7.1841   27.2041 C   0  0  0  0  0  0  0  0  0  0  0  0
   12.3401    7.6182   26.2603 C   0  0  0  0  0  0  0  0  0  0  0  0
   14.0209    7.5959   26.5956 Cl  0  0  0  0  0  0  0  0  0  0  0  0
   11.8600    8.0644   25.0419 C   0  0  0  0  0  0  0  0  0  0  0  0
   10.5454    8.0843   24.7113 N   0  0  0  0  0  0  0  0  0  0  0  0
    9.9838    2.5740   16.8742 H   0  0  0  0  0  0  0  0  0  0  0  0
    8.5402    1.8859   17.3137 H   0  0  0  0  0  0  0  0  0  0  0  0
    9.8558    1.8004   18.3349 H   0  0  0  0  0  0  0  0  0  0  0  0
    8.4862    4.2662   17.5033 H   0  0  0  0  0  0  0  0  0  0  0  0
    9.8692    4.1640   18.6244 H   0  0  0  0  0  0  0  0  0  0  0  0
    7.8163    1.3165   19.7399 H   0  0  0  0  0  0  0  0  0  0  0  0
    7.1317    6.5541   22.1208 H   0  0  0  0  0  0  0  0  0  0  0  0
    2.5843    7.1144   20.3191 H   0  0  0  0  0  0  0  0  0  0  0  0
    4.1832    7.8262   20.5888 H   0  0  0  0  0  0  0  0  0  0  0  0
    2.7118    8.6071   21.2656 H   0  0  0  0  0  0  0  0  0  0  0  0
    2.4006    8.4069   24.0619 H   0  0  0  0  0  0  0  0  0  0  0  0
    6.2361    9.4823   25.6779 H   0  0  0  0  0  0  0  0  0  0  0  0
    7.6644    7.5548   26.1498 H   0  0  0  0  0  0  0  0  0  0  0  0
    9.3363    6.8906   27.6331 H   0  0  0  0  0  0  0  0  0  0  0  0
   11.7499    6.8184   28.1726 H   0  0  0  0  0  0  0  0  0  0  0  0
   12.5301    8.4327   24.2705 H   0  0  0  0  0  0  0  0  0  0  0  0
  1  2  1  0  0  0  0
  1 31  1  0  0  0  0
  1 32  1  0  0  0  0
  1 33  1  0  0  0  0
  2  3  1  0  0  0  0
  2 34  1  0  0  0  0
  2 35  1  0  0  0  0
  3  6  2  0  0  0  0
  3  4  1  0  0  0  0
  4  5  1  0  0  0  0
  4  8  2  0  0  0  0
  6  7  1  0  0  0  0
  6 36  1  0  0  0  0
  7  8  1  0  0  0  0
  8  9  1  0  0  0  0
  9 11  1  0  0  0  0
  9 10  2  0  0  0  0
 11 12  1  0  0  0  0
 11 37  1  0  0  0  0
 12 13  2  0  0  0  0
 12 20  1  0  0  0  0
 13 14  1  0  0  0  0
 13 16  1  0  0  0  0
 14 15  1  0  0  0  0
 15 38  1  0  0  0  0
 15 39  1  0  0  0  0
 15 40  1  0  0  0  0
 16 17  2  0  0  0  0
 16 41  1  0  0  0  0
 17 19  1  0  0  0  0
 17 18  1  0  0  0  0
 19 20  2  0  0  0  0
 19 42  1  0  0  0  0
 20 21  1  0  0  0  0
 21 22  2  0  0  0  0
 21 23  1  0  0  0  0
 23 24  1  0  0  0  0
 23 43  1  0  0  0  0
 24 30  1  0  0  0  0
 24 25  2  0  0  0  0
 25 26  1  0  0  0  0
 25 44  1  0  0  0  0
 26 27  2  0  0  0  0
 26 45  1  0  0  0  0
 27 29  1  0  0  0  0
 27 28  1  0  0  0  0
 29 30  2  0  0  0  0
 29 46  1  0  0  0  0
M  CHG  1   1   1
M  END
>  <MOL Chiral Flag>
0

>  <InstanceId>
2P3T_993_B_500

>  <ChemCompId>
993

>  <PdbId>
2P3T

>  <ChainId>
B

>  <ResidueNumber>
500

>  <InsertionCode>


>  <Model>
1

>  <AltIds>


>  <MissingHeavyAtoms>
0

>  <ObservedFormula>
C23 N6 O3 S Cl3

>  <Name>
3-CHLORO-4-(2-METHYLAMINO-IMIDAZOL-1-YLMETHYL)-THIOPHENE-2-CARBOXYLIC ACID [4-CHLORO-2-(5-CHLORO-PYRIDIN-2-YLCARBAMOYL)-6-METHOXY-PHENYL]-AMIDE

>  <SystematicName>
3-chloro-N-[4-chloro-2-[(5-chloropyridin-2-yl)carbamoyl]-6-methoxy-phenyl]-4-[(2-methylaminoimidazol-1-yl)methyl]thiophene-2-carboxamide

>  <Synonyms>


>  <Type>
NON-POLYMER

>  <Formula>
C23 H19 Cl3 N6 O3 S

>  <MolecularWeight>
565.859

>  <ModifiedDate>
2011-06-04

>  <Parent>


>  <OneLetterCode>


>  <SubcomponentList>


>  <AmbiguousFlag>


>  <InChI>
InChI=1S/C23H19Cl3N6O3S/c1-27-23-28-5-6-32(23)10-12-11-36-20(18(12)26)22(34)31-19-15(7-14(25)8-16(19)35-2)21(33)30-17-4-3-13(24)9-29-17/h3-9,11H,10H2,1-2H3,(H,27,28)(H,31,34)(H,29,30,33)

>  <InChIKey>
LLHSZBPXQIOQJJ-UHFFFAOYSA-N

>  <SMILES>
CNc1nccn1Cc2csc(c2Cl)C(=O)Nc3c(cc(cc3OC)Cl)C(=O)Nc4ccc(cn4)Cl

$$$$
