
 OpenBabel09181910143D

 49 51  0  0  0  0  0  0  0  0999 V2000
    8.5880    1.7575   16.7003 C   0  0  0  0  0  0  0  0  0  0  0  0
    9.4770    2.3846   17.7142 N   0  3  0  0  0  0  0  0  0  0  0  0
    8.9639    3.6516   18.3219 C   0  0  0  0  0  0  0  0  0  0  0  0
    7.9825    3.5036   19.4455 C   0  0  0  0  0  0  0  0  0  0  0  0
    7.3865    4.6313   20.1354 C   0  0  0  0  0  0  0  0  0  0  0  0
    7.7529    6.2440   19.6588 Cl  0  0  0  0  0  0  0  0  0  0  0  0
    7.5206    2.3195   19.9886 C   0  0  0  0  0  0  0  0  0  0  0  0
    6.4128    2.5528   21.2597 S   0  0  0  0  0  0  0  0  0  0  0  0
    6.5208    4.2652   21.1514 C   0  0  0  0  0  0  0  0  0  0  0  0
    5.7112    5.0491   22.0862 C   0  0  0  0  0  0  0  0  0  0  0  0
    4.7872    4.5529   22.7233 O   0  0  0  0  0  0  0  0  0  0  0  0
    6.1353    6.3561   22.2791 N   0  0  0  0  0  0  0  0  0  0  0  0
    5.4923    7.2598   23.1641 C   0  0  0  0  0  0  0  0  0  0  0  0
    4.1015    7.4571   23.1465 C   0  0  0  0  0  0  0  0  0  0  0  0
    3.2995    6.8498   22.2136 O   0  0  0  0  0  0  0  0  0  0  0  0
    3.2015    7.6571   21.0399 C   0  0  0  0  0  0  0  0  0  0  0  0
    3.4833    8.3013   24.0714 C   0  0  0  0  0  0  0  0  0  0  0  0
    4.2610    9.0109   24.9808 C   0  0  0  0  0  0  0  0  0  0  0  0
    3.5053   10.0670   26.1079 Cl  0  0  0  0  0  0  0  0  0  0  0  0
    5.6491    8.8861   24.9789 C   0  0  0  0  0  0  0  0  0  0  0  0
    6.2652    8.0089   24.0735 C   0  0  0  0  0  0  0  0  0  0  0  0
    7.7428    7.8385   24.1028 C   0  0  0  0  0  0  0  0  0  0  0  0
    8.3201    7.7079   23.0274 O   0  0  0  0  0  0  0  0  0  0  0  0
    8.2860    7.7143   25.3640 N   0  0  0  0  0  0  0  0  0  0  0  0
    9.6599    7.6683   25.6327 C   0  0  0  0  0  0  0  0  0  0  0  0
   10.0573    7.2239   26.8921 C   0  0  0  0  0  0  0  0  0  0  0  0
   11.4186    7.1835   27.2017 C   0  0  0  0  0  0  0  0  0  0  0  0
   12.3390    7.6188   26.2591 C   0  0  0  0  0  0  0  0  0  0  0  0
   14.0195    7.5977   26.5964 Cl  0  0  0  0  0  0  0  0  0  0  0  0
   11.8599    8.0650   25.0404 C   0  0  0  0  0  0  0  0  0  0  0  0
   10.5456    8.0836   24.7081 N   0  0  0  0  0  0  0  0  0  0  0  0
    9.0664    0.8291   16.3796 H   0  0  0  0  0  0  0  0  0  0  0  0
    8.4927    2.4459   15.8571 H   0  0  0  0  0  0  0  0  0  0  0  0
    7.6172    1.5490   17.1537 H   0  0  0  0  0  0  0  0  0  0  0  0
   10.3757    2.5950   17.2611 H   0  0  0  0  0  0  0  0  0  0  0  0
    9.7027    1.7169   18.4617 H   0  0  0  0  0  0  0  0  0  0  0  0
    8.5420    4.2467   17.5044 H   0  0  0  0  0  0  0  0  0  0  0  0
    9.8551    4.1686   18.6955 H   0  0  0  0  0  0  0  0  0  0  0  0
    7.7554    1.2999   19.7161 H   0  0  0  0  0  0  0  0  0  0  0  0
    7.1257    6.5443   22.1115 H   0  0  0  0  0  0  0  0  0  0  0  0
    2.5833    7.1198   20.3145 H   0  0  0  0  0  0  0  0  0  0  0  0
    4.1840    7.8268   20.5858 H   0  0  0  0  0  0  0  0  0  0  0  0
    2.7142    8.6133   21.2593 H   0  0  0  0  0  0  0  0  0  0  0  0
    2.4020    8.4123   24.0609 H   0  0  0  0  0  0  0  0  0  0  0  0
    6.2417    9.4789   25.6716 H   0  0  0  0  0  0  0  0  0  0  0  0
    7.6638    7.5503   26.1431 H   0  0  0  0  0  0  0  0  0  0  0  0
    9.3343    6.8876   27.6280 H   0  0  0  0  0  0  0  0  0  0  0  0
   11.7473    6.8177   28.1705 H   0  0  0  0  0  0  0  0  0  0  0  0
   12.5305    8.4344   24.2700 H   0  0  0  0  0  0  0  0  0  0  0  0
  1  2  1  0  0  0  0
  1 32  1  0  0  0  0
  1 33  1  0  0  0  0
  1 34  1  0  0  0  0
  2  3  1  0  0  0  0
  2 35  1  0  0  0  0
  2 36  1  0  0  0  0
  3  4  1  0  0  0  0
  3 37  1  0  0  0  0
  3 38  1  0  0  0  0
  4  7  2  0  0  0  0
  4  5  1  0  0  0  0
  5  6  1  0  0  0  0
  5  9  2  0  0  0  0
  7  8  1  0  0  0  0
  7 39  1  0  0  0  0
  8  9  1  0  0  0  0
  9 10  1  0  0  0  0
 10 12  1  0  0  0  0
 10 11  2  0  0  0  0
 12 13  1  0  0  0  0
 12 40  1  0  0  0  0
 13 14  2  0  0  0  0
 13 21  1  0  0  0  0
 14 15  1  0  0  0  0
 14 17  1  0  0  0  0
 15 16  1  0  0  0  0
 16 41  1  0  0  0  0
 16 42  1  0  0  0  0
 16 43  1  0  0  0  0
 17 18  2  0  0  0  0
 17 44  1  0  0  0  0
 18 20  1  0  0  0  0
 18 19  1  0  0  0  0
 20 21  2  0  0  0  0
 20 45  1  0  0  0  0
 21 22  1  0  0  0  0
 22 23  2  0  0  0  0
 22 24  1  0  0  0  0
 24 25  1  0  0  0  0
 24 46  1  0  0  0  0
 25 31  1  0  0  0  0
 25 26  2  0  0  0  0
 26 27  1  0  0  0  0
 26 47  1  0  0  0  0
 27 28  2  0  0  0  0
 27 48  1  0  0  0  0
 28 30  1  0  0  0  0
 28 29  1  0  0  0  0
 30 31  2  0  0  0  0
 30 49  1  0  0  0  0
M  CHG  1   2   1
M  END
>  <MOL Chiral Flag>
0

>  <InstanceId>
2P3T_993_B_500

>  <ChemCompId>
993

>  <PdbId>
2P3T

>  <ChainId>
B

>  <ResidueNumber>
500

>  <InsertionCode>


>  <Model>
1

>  <AltIds>


>  <MissingHeavyAtoms>
0

>  <ObservedFormula>
C23 N6 O3 S Cl3

>  <Name>
3-CHLORO-4-(2-METHYLAMINO-IMIDAZOL-1-YLMETHYL)-THIOPHENE-2-CARBOXYLIC ACID [4-CHLORO-2-(5-CHLORO-PYRIDIN-2-YLCARBAMOYL)-6-METHOXY-PHENYL]-AMIDE

>  <SystematicName>
3-chloro-N-[4-chloro-2-[(5-chloropyridin-2-yl)carbamoyl]-6-methoxy-phenyl]-4-[(2-methylaminoimidazol-1-yl)methyl]thiophene-2-carboxamide

>  <Synonyms>


>  <Type>
NON-POLYMER

>  <Formula>
C23 H19 Cl3 N6 O3 S

>  <MolecularWeight>
565.859

>  <ModifiedDate>
2011-06-04

>  <Parent>


>  <OneLetterCode>


>  <SubcomponentList>


>  <AmbiguousFlag>


>  <InChI>
InChI=1S/C23H19Cl3N6O3S/c1-27-23-28-5-6-32(23)10-12-11-36-20(18(12)26)22(34)31-19-15(7-14(25)8-16(19)35-2)21(33)30-17-4-3-13(24)9-29-17/h3-9,11H,10H2,1-2H3,(H,27,28)(H,31,34)(H,29,30,33)

>  <InChIKey>
LLHSZBPXQIOQJJ-UHFFFAOYSA-N

>  <SMILES>
CNc1nccn1Cc2csc(c2Cl)C(=O)Nc3c(cc(cc3OC)Cl)C(=O)Nc4ccc(cn4)Cl

$$$$
