
 OpenBabel09181910133D

 52 54  0  0  0  0  0  0  0  0999 V2000
    8.6542    1.9978   16.4917 C   0  0  0  0  0  0  0  0  0  0  0  0
   10.7915    1.9362   17.7686 C   0  0  0  0  0  0  0  0  0  0  0  0
    9.3054    2.1397   17.8380 N   0  3  0  0  0  0  0  0  0  0  0  0
    8.9340    3.4404   18.5284 C   0  0  0  0  0  0  0  0  0  0  0  0
    7.8951    3.3477   19.6116 C   0  0  0  0  0  0  0  0  0  0  0  0
    7.2665    4.5100   20.2122 C   0  0  0  0  0  0  0  0  0  0  0  0
    7.6325    6.0984   19.6593 Cl  0  0  0  0  0  0  0  0  0  0  0  0
    7.4293    2.1967   20.2201 C   0  0  0  0  0  0  0  0  0  0  0  0
    6.2662    2.4964   21.4274 S   0  0  0  0  0  0  0  0  0  0  0  0
    6.3766    4.1979   21.2255 C   0  0  0  0  0  0  0  0  0  0  0  0
    5.5548    5.0330   22.1016 C   0  0  0  0  0  0  0  0  0  0  0  0
    4.5677    4.5897   22.6832 O   0  0  0  0  0  0  0  0  0  0  0  0
    6.0474    6.3107   22.3165 N   0  0  0  0  0  0  0  0  0  0  0  0
    5.4470    7.2611   23.1830 C   0  0  0  0  0  0  0  0  0  0  0  0
    4.0661    7.5218   23.1752 C   0  0  0  0  0  0  0  0  0  0  0  0
    3.2215    6.9358   22.2674 O   0  0  0  0  0  0  0  0  0  0  0  0
    3.1678    7.7051   21.0661 C   0  0  0  0  0  0  0  0  0  0  0  0
    3.4965    8.4163   24.0848 C   0  0  0  0  0  0  0  0  0  0  0  0
    4.3143    9.1169   24.9641 C   0  0  0  0  0  0  0  0  0  0  0  0
    3.6203   10.2382   26.0678 Cl  0  0  0  0  0  0  0  0  0  0  0  0
    5.6949    8.9311   24.9499 C   0  0  0  0  0  0  0  0  0  0  0  0
    6.2624    7.9987   24.0670 C   0  0  0  0  0  0  0  0  0  0  0  0
    7.7340    7.7634   24.0934 C   0  0  0  0  0  0  0  0  0  0  0  0
    8.2935    7.5405   23.0238 O   0  0  0  0  0  0  0  0  0  0  0  0
    8.2894    7.7111   25.3547 N   0  0  0  0  0  0  0  0  0  0  0  0
    9.6629    7.6406   25.6212 C   0  0  0  0  0  0  0  0  0  0  0  0
   10.0500    7.3678   26.9321 C   0  0  0  0  0  0  0  0  0  0  0  0
   11.4099    7.3263   27.2475 C   0  0  0  0  0  0  0  0  0  0  0  0
   12.3416    7.5812   26.2519 C   0  0  0  0  0  0  0  0  0  0  0  0
   14.0213    7.5553   26.5926 Cl  0  0  0  0  0  0  0  0  0  0  0  0
   11.8741    7.8548   24.9788 C   0  0  0  0  0  0  0  0  0  0  0  0
   10.5598    7.8772   24.6459 N   0  0  0  0  0  0  0  0  0  0  0  0
    8.8820    0.9987   16.1101 H   0  0  0  0  0  0  0  0  0  0  0  0
    9.0558    2.7670   15.8261 H   0  0  0  0  0  0  0  0  0  0  0  0
    7.5748    2.1110   16.6200 H   0  0  0  0  0  0  0  0  0  0  0  0
   10.9792    0.9585   17.3167 H   0  0  0  0  0  0  0  0  0  0  0  0
   11.1804    1.9487   18.7907 H   0  0  0  0  0  0  0  0  0  0  0  0
   11.2280    2.7386   17.1688 H   0  0  0  0  0  0  0  0  0  0  0  0
    8.9525    1.3677   18.4086 H   0  0  0  0  0  0  0  0  0  0  0  0
    8.6110    4.1326   17.7418 H   0  0  0  0  0  0  0  0  0  0  0  0
    9.8516    3.8501   18.9677 H   0  0  0  0  0  0  0  0  0  0  0  0
    7.6912    1.1632   20.0447 H   0  0  0  0  0  0  0  0  0  0  0  0
    7.0486    6.4454   22.1586 H   0  0  0  0  0  0  0  0  0  0  0  0
    2.5199    7.1780   20.3596 H   0  0  0  0  0  0  0  0  0  0  0  0
    4.1574    7.8050   20.6068 H   0  0  0  0  0  0  0  0  0  0  0  0
    2.7344    8.6937   21.2526 H   0  0  0  0  0  0  0  0  0  0  0  0
    2.4210    8.5747   24.0824 H   0  0  0  0  0  0  0  0  0  0  0  0
    6.3193    9.5210   25.6165 H   0  0  0  0  0  0  0  0  0  0  0  0
    7.6714    7.6522   26.1518 H   0  0  0  0  0  0  0  0  0  0  0  0
    9.3185    7.1754   27.7103 H   0  0  0  0  0  0  0  0  0  0  0  0
   11.7282    7.1023   28.2619 H   0  0  0  0  0  0  0  0  0  0  0  0
   12.5553    8.0753   24.1621 H   0  0  0  0  0  0  0  0  0  0  0  0
  1  3  1  0  0  0  0
  1 33  1  0  0  0  0
  1 34  1  0  0  0  0
  1 35  1  0  0  0  0
  2  3  1  0  0  0  0
  2 36  1  0  0  0  0
  2 37  1  0  0  0  0
  2 38  1  0  0  0  0
  3  4  1  0  0  0  0
  3 39  1  0  0  0  0
  4  5  1  0  0  0  0
  4 40  1  0  0  0  0
  4 41  1  0  0  0  0
  5  8  2  0  0  0  0
  5  6  1  0  0  0  0
  6  7  1  0  0  0  0
  6 10  2  0  0  0  0
  8  9  1  0  0  0  0
  8 42  1  0  0  0  0
  9 10  1  0  0  0  0
 10 11  1  0  0  0  0
 11 13  1  0  0  0  0
 11 12  2  0  0  0  0
 13 14  1  0  0  0  0
 13 43  1  0  0  0  0
 14 15  2  0  0  0  0
 14 22  1  0  0  0  0
 15 16  1  0  0  0  0
 15 18  1  0  0  0  0
 16 17  1  0  0  0  0
 17 44  1  0  0  0  0
 17 45  1  0  0  0  0
 17 46  1  0  0  0  0
 18 19  2  0  0  0  0
 18 47  1  0  0  0  0
 19 21  1  0  0  0  0
 19 20  1  0  0  0  0
 21 22  2  0  0  0  0
 21 48  1  0  0  0  0
 22 23  1  0  0  0  0
 23 24  2  0  0  0  0
 23 25  1  0  0  0  0
 25 26  1  0  0  0  0
 25 49  1  0  0  0  0
 26 32  1  0  0  0  0
 26 27  2  0  0  0  0
 27 28  1  0  0  0  0
 27 50  1  0  0  0  0
 28 29  2  0  0  0  0
 28 51  1  0  0  0  0
 29 31  1  0  0  0  0
 29 30  1  0  0  0  0
 31 32  2  0  0  0  0
 31 52  1  0  0  0  0
M  CHG  1   3   1
M  END
>  <MOL Chiral Flag>
0

>  <InstanceId>
2P3T_993_B_500

>  <ChemCompId>
993

>  <PdbId>
2P3T

>  <ChainId>
B

>  <ResidueNumber>
500

>  <InsertionCode>


>  <Model>
1

>  <AltIds>


>  <MissingHeavyAtoms>
0

>  <ObservedFormula>
C23 N6 O3 S Cl3

>  <Name>
3-CHLORO-4-(2-METHYLAMINO-IMIDAZOL-1-YLMETHYL)-THIOPHENE-2-CARBOXYLIC ACID [4-CHLORO-2-(5-CHLORO-PYRIDIN-2-YLCARBAMOYL)-6-METHOXY-PHENYL]-AMIDE

>  <SystematicName>
3-chloro-N-[4-chloro-2-[(5-chloropyridin-2-yl)carbamoyl]-6-methoxy-phenyl]-4-[(2-methylaminoimidazol-1-yl)methyl]thiophene-2-carboxamide

>  <Synonyms>


>  <Type>
NON-POLYMER

>  <Formula>
C23 H19 Cl3 N6 O3 S

>  <MolecularWeight>
565.859

>  <ModifiedDate>
2011-06-04

>  <Parent>


>  <OneLetterCode>


>  <SubcomponentList>


>  <AmbiguousFlag>


>  <InChI>
InChI=1S/C23H19Cl3N6O3S/c1-27-23-28-5-6-32(23)10-12-11-36-20(18(12)26)22(34)31-19-15(7-14(25)8-16(19)35-2)21(33)30-17-4-3-13(24)9-29-17/h3-9,11H,10H2,1-2H3,(H,27,28)(H,31,34)(H,29,30,33)

>  <InChIKey>
LLHSZBPXQIOQJJ-UHFFFAOYSA-N

>  <SMILES>
CNc1nccn1Cc2csc(c2Cl)C(=O)Nc3c(cc(cc3OC)Cl)C(=O)Nc4ccc(cn4)Cl

$$$$
